flamprop-isopropyl
 OpenBabel03191421592D

 25 26  0  0  0  0  0  0  0  0999 V2000
    1.4289   -1.6500    0.0000 C    0  0  0  0  0  0  0  0  0  0  0  0
    2.1434   -2.0625    0.0000 C    0  0  0  0  0  0  0  0  0  0  0  0
    2.1434   -2.8875    0.0000 C    0  0  0  0  0  0  0  0  0  0  0  0
    2.8579   -1.6500    0.0000 O    0  0  0  0  0  0  0  0  0  0  0  0
    3.5724   -2.0625    0.0000 C    0  0  0  0  0  0  0  0  0  0  0  0
    3.5724   -2.8875    0.0000 O    0  0  0  0  0  0  0  0  0  0  0  0
    4.2868   -1.6500    0.0000 C    0  0  3  0  0  0  0  0  0  0  0  0
    4.2868   -0.8250    0.0000 C    0  0  0  0  0  0  0  0  0  0  0  0
    5.0013   -2.0625    0.0000 N    0  0  0  0  0  0  0  0  0  0  0  0
    5.7158   -1.6500    0.0000 C    0  0  0  0  0  0  0  0  0  0  0  0
    5.7158   -0.8250    0.0000 O    0  0  0  0  0  0  0  0  0  0  0  0
    6.4302   -2.0625    0.0000 C    0  0  0  0  0  0  0  0  0  0  0  0
    7.1447   -1.6500    0.0000 C    0  0  0  0  0  0  0  0  0  0  0  0
    7.8592   -2.0625    0.0000 C    0  0  0  0  0  0  0  0  0  0  0  0
    7.8592   -2.8875    0.0000 C    0  0  0  0  0  0  0  0  0  0  0  0
    7.1447   -3.3000    0.0000 C    0  0  0  0  0  0  0  0  0  0  0  0
    6.4302   -2.8875    0.0000 C    0  0  0  0  0  0  0  0  0  0  0  0
    5.0013   -2.8875    0.0000 C    0  0  0  0  0  0  0  0  0  0  0  0
    5.7158   -3.3000    0.0000 C    0  0  0  0  0  0  0  0  0  0  0  0
    5.7158   -4.1250    0.0000 C    0  0  0  0  0  0  0  0  0  0  0  0
    5.0013   -4.5375    0.0000 C    0  0  0  0  0  0  0  0  0  0  0  0
    5.0013   -5.3625    0.0000 F    0  0  0  0  0  0  0  0  0  0  0  0
    4.2868   -4.1250    0.0000 C    0  0  0  0  0  0  0  0  0  0  0  0
    3.5724   -4.5375    0.0000 Cl   0  0  0  0  0  0  0  0  0  0  0  0
    4.2868   -3.3000    0.0000 C    0  0  0  0  0  0  0  0  0  0  0  0
  1  2  1  0  0  0  0
  2  3  1  0  0  0  0
  2  4  1  0  0  0  0
  4  5  1  0  0  0  0
  5  6  2  0  0  0  0
  5  7  1  0  0  0  0
  7  8  1  0  0  0  0
  7  9  1  0  0  0  0
  9 10  1  0  0  0  0
  9 18  1  0  0  0  0
 10 11  2  0  0  0  0
 10 12  1  0  0  0  0
 12 13  2  0  0  0  0
 12 17  1  0  0  0  0
 13 14  1  0  0  0  0
 14 15  2  0  0  0  0
 15 16  1  0  0  0  0
 16 17  2  0  0  0  0
 18 19  2  0  0  0  0
 18 25  1  0  0  0  0
 19 20  1  0  0  0  0
 20 21  2  0  0  0  0
 21 22  1  0  0  0  0
 21 23  1  0  0  0  0
 23 24  1  0  0  0  0
 23 25  2  0  0  0  0
M  END
$$$$
