DB00197
ChemmineR-0317140124XD

 31 34  0  0  1  0            999 V2000
   11.4977    0.4914    0.0000 S   0  0  0  0  0  0  0  0  0  0  0  0
    4.9739   -1.4254    0.0000 O   0  0  0  0  0  0  0  0  0  0  0  0
    6.9616   -0.2918    0.0000 O   0  0  0  0  0  0  0  0  0  0  0  0
    2.0929    0.2531    0.0000 O   0  0  0  0  0  0  0  0  0  0  0  0
    9.5379    1.3379    0.0000 O   0  0  0  0  0  0  0  0  0  0  0  0
   12.4273    1.6304    0.0000 O   0  0  0  0  0  0  0  0  0  0  0  0
   10.9595    1.7129    0.0000 N   0  0  0  0  0  0  0  0  0  0  0  0
    5.7214   -1.0015    0.0000 C   0  0  0  0  0  0  0  0  0  0  0  0
    5.7214   -0.1421    0.0000 C   0  0  0  0  0  0  0  0  0  0  0  0
    4.9739    0.2817    0.0000 C   0  0  0  0  0  0  0  0  0  0  0  0
    4.2364   -0.1594    0.0000 C   0  0  0  0  0  0  0  0  0  0  0  0
    4.2364   -0.9844    0.0000 C   0  0  0  0  0  0  0  0  0  0  0  0
    6.5464   -1.0047    0.0000 C   0  0  0  0  0  0  0  0  0  0  0  0
    6.1312   -1.7176    0.0000 C   0  0  0  0  0  0  0  0  0  0  0  0
    3.5219    0.2531    0.0000 C   0  0  0  0  0  0  0  0  0  0  0  0
    3.5219   -1.3969    0.0000 C   0  0  0  0  0  0  0  0  0  0  0  0
    2.8075   -0.9844    0.0000 C   0  0  0  0  0  0  0  0  0  0  0  0
    2.8075   -0.1594    0.0000 C   0  0  0  0  0  0  0  0  0  0  0  0
    3.5219    1.0781    0.0000 C   0  0  0  0  0  0  0  0  0  0  0  0
    3.5219   -2.2219    0.0000 C   0  0  0  0  0  0  0  0  0  0  0  0
    2.0929   -1.3969    0.0000 C   0  0  0  0  0  0  0  0  0  0  0  0
    7.7866   -0.2950    0.0000 C   0  0  0  0  0  0  0  0  0  0  0  0
    9.4366   -0.3014    0.0000 C   0  0  0  0  0  0  0  0  0  0  0  0
    8.1964   -1.0110    0.0000 C   0  0  0  0  0  0  0  0  0  0  0  0
    8.2019    0.4179    0.0000 C   0  0  0  0  0  0  0  0  0  0  0  0
   10.2616   -0.3046    0.0000 C   0  0  0  0  0  0  0  0  0  0  0  0
   10.6769    0.4083    0.0000 C   0  0  0  0  0  0  0  0  0  0  0  0
    9.0214   -1.0143    0.0000 C   0  0  0  0  0  0  0  0  0  0  0  0
    9.0269    0.4146    0.0000 C   0  0  0  0  0  0  0  0  0  0  0  0
   10.3442    1.1632    0.0000 C   0  0  0  0  0  0  0  0  0  0  0  0
   11.6723    1.2977    0.0000 C   0  0  0  0  0  0  0  0  0  0  0  0
  1 27  1  0  0  0  0
  1 31  1  0  0  0  0
  2  8  1  0  0  0  0
  2 12  1  0  0  0  0
  3 13  1  0  0  0  0
  3 22  1  0  0  0  0
  4 18  1  0  0  0  0
  5 30  2  0  0  0  0
  6 31  2  0  0  0  0
  7 30  1  0  0  0  0
  7 31  1  0  0  0  0
  8  9  1  0  0  0  0
  8 13  1  0  0  0  0
  8 14  1  0  0  0  0
  9 10  1  0  0  0  0
 10 11  1  0  0  0  0
 11 12  2  0  0  0  0
 11 15  1  0  0  0  0
 12 16  1  0  0  0  0
 15 18  2  0  0  0  0
 15 19  1  0  0  0  0
 16 17  2  0  0  0  0
 16 20  1  0  0  0  0
 17 18  1  0  0  0  0
 17 21  1  0  0  0  0
 22 24  2  0  0  0  0
 22 25  1  0  0  0  0
 23 26  1  0  0  0  0
 23 28  2  0  0  0  0
 23 29  1  0  0  0  0
 24 28  1  0  0  0  0
 25 29  2  0  0  0  0
 26 27  1  0  0  0  0
 27 30  1  0  0  0  0
M  END
> <DRUGBANK_ID>
DB00197

> <DRUG_GROUPS>
withdrawn

> <GENERIC_NAME>
Troglitazone

> <BRANDS>
Noscal; Prelay; Resulin; Rezulin; Romglizone; Romozin

> <CHEMICAL_FORMULA>
C24H27NO5S

> <MOLECULAR_WEIGHT>
441.54

> <EXACT_MASS>
441.160993669

> <IUPAC_NAME>
5-({4-[(6-hydroxy-2,5,7,8-tetramethyl-3,4-dihydro-2H-1-benzopyran-2-yl)methoxy]phenyl}methyl)-1,3-thiazolidine-2,4-dione

> <INCHI_IDENTIFIER>
InChI=1S/C24H27NO5S/c1-13-14(2)21-18(15(3)20(13)26)9-10-24(4,30-21)12-29-17-7-5-16(6-8-17)11-19-22(27)25-23(28)31-19/h5-8,19,26H,9-12H2,1-4H3,(H,25,27,28)

> <INCHI_KEY>
InChIKey=GXPHKUHSUJUWKP-UHFFFAOYSA-N

> <SMILES>
CC1=C(C)C2=C(CCC(C)(COC3=CC=C(CC4SC(=O)NC4=O)C=C3)O2)C(C)=C1O

> <JCHEM_ACCEPTOR_COUNT>
5

> <JCHEM_DONOR_COUNT>
2

> <JCHEM_ACIDIC_PKA>
6.61

> <JCHEM_BASIC_PKA>
-4.6

> <JCHEM_PHYSIOLOGICAL_CHARGE>
-1

> <ALOGPS_LOGP>
4.16

> <JCHEM_LOGP>
5.5

> <ALOGPS_LOGS>
-5.6

> <JCHEM_POLARIZABILITY>
47.08

> <JCHEM_POLAR_SURFACE_AREA>
84.86

> <JCHEM_REFRACTIVITY>
120.99

> <JCHEM_ROTATABLE_BOND_COUNT>
5

> <ALOGPS_SOLUBILITY>
1.21e-03 g/l __ 

$$$$
DB00323
ChemmineR-0317140124XD

 20 21  0  0  0  0            999 V2000
    5.6655    0.6188    0.0000 O   0  0  0  0  0  0  0  0  0  0  0  0
    2.0930    0.2063    0.0000 O   0  0  0  0  0  0  0  0  0  0  0  0
    2.0930    1.8563    0.0000 O   0  0  0  0  0  0  0  0  0  0  0  0
    4.2365    3.0938    0.0000 O   0  5  0  0  0  0  0  0  0  0  0  0
    2.8075    3.0938    0.0000 O   0  0  0  0  0  0  0  0  0  0  0  0
    3.5220    2.6813    0.0000 N   0  3  0  0  0  0  0  0  0  0  0  0
    4.2365    0.6188    0.0000 C   0  0  0  0  0  0  0  0  0  0  0  0
    4.9509   -0.6188    0.0000 C   0  0  0  0  0  0  0  0  0  0  0  0
    4.9509    0.2063    0.0000 C   0  0  0  0  0  0  0  0  0  0  0  0
    4.2365    1.4438    0.0000 C   0  0  0  0  0  0  0  0  0  0  0  0
    3.5220    0.2063    0.0000 C   0  0  0  0  0  0  0  0  0  0  0  0
    3.5220    1.8563    0.0000 C   0  0  0  0  0  0  0  0  0  0  0  0
    2.8075    0.6188    0.0000 C   0  0  0  0  0  0  0  0  0  0  0  0
    4.9509   -2.2688    0.0000 C   0  0  0  0  0  0  0  0  0  0  0  0
    4.2365   -1.0313    0.0000 C   0  0  0  0  0  0  0  0  0  0  0  0
    5.6655   -1.0313    0.0000 C   0  0  0  0  0  0  0  0  0  0  0  0
    2.8075    1.4438    0.0000 C   0  0  0  0  0  0  0  0  0  0  0  0
    4.2365   -1.8563    0.0000 C   0  0  0  0  0  0  0  0  0  0  0  0
    5.6655   -1.8563    0.0000 C   0  0  0  0  0  0  0  0  0  0  0  0
    4.9509   -3.0938    0.0000 C   0  0  0  0  0  0  0  0  0  0  0  0
  1  9  2  0  0  0  0
  2 13  1  0  0  0  0
  3 17  1  0  0  0  0
  4  6  1  0  0  0  0
  5  6  2  0  0  0  0
  6 12  1  0  0  0  0
  7  9  1  0  0  0  0
  7 10  2  0  0  0  0
  7 11  1  0  0  0  0
  8  9  1  0  0  0  0
  8 15  2  0  0  0  0
  8 16  1  0  0  0  0
 10 12  1  0  0  0  0
 11 13  2  0  0  0  0
 12 17  2  0  0  0  0
 13 17  1  0  0  0  0
 14 18  2  0  0  0  0
 14 19  1  0  0  0  0
 14 20  1  0  0  0  0
 15 18  1  0  0  0  0
 16 19  2  0  0  0  0
M  END
> <DRUGBANK_ID>
DB00323

> <DRUG_GROUPS>
approved; withdrawn

> <GENERIC_NAME>
Tolcapone

> <BRANDS>
Tasmar

> <CHEMICAL_FORMULA>
C14H11NO5

> <MOLECULAR_WEIGHT>
273.2408

> <EXACT_MASS>
273.063722467

> <IUPAC_NAME>
5-[(4-methylphenyl)carbonyl]-3-nitrobenzene-1,2-diol

> <INCHI_IDENTIFIER>
InChI=1S/C14H11NO5/c1-8-2-4-9(5-3-8)13(17)10-6-11(15(19)20)14(18)12(16)7-10/h2-7,16,18H,1H3

> <INCHI_KEY>
InChIKey=MIQPIUSUKVNLNT-UHFFFAOYSA-N

> <SMILES>
CC1=CC=C(C=C1)C(=O)C1=CC(=C(O)C(O)=C1)[N+]([O-])=O

> <JCHEM_ACCEPTOR_COUNT>
5

> <JCHEM_DONOR_COUNT>
2

> <JCHEM_ACIDIC_PKA>
5.17

> <JCHEM_BASIC_PKA>
-6.4

> <JCHEM_PHYSIOLOGICAL_CHARGE>
-1

> <ALOGPS_LOGP>
2.63

> <JCHEM_LOGP>
3.28

> <ALOGPS_LOGS>
-3.7

> <JCHEM_POLARIZABILITY>
26.44

> <JCHEM_POLAR_SURFACE_AREA>
103.35

> <JCHEM_REFRACTIVITY>
72.96

> <JCHEM_ROTATABLE_BOND_COUNT>
3

> <ALOGPS_SOLUBILITY>
5.69e-02 g/l __ 

$$$$
DB00342
ChemmineR-0317140124XD

 35 38  0  0  1  0            999 V2000
    3.4115    3.3001    0.0000 O   0  0  0  0  0  0  0  0  0  0  0  0
    2.0930   -1.2375    0.0000 O   0  0  0  0  0  0  0  0  0  0  0  0
    4.2365    0.8250    0.0000 N   0  0  0  0  0  0  0  0  0  0  0  0
    4.2365    2.4751    0.0000 C   0  0  0  0  0  0  0  0  0  0  0  0
    4.9509    2.0625    0.0000 C   0  0  0  0  0  0  0  0  0  0  0  0
    3.5220    2.0625    0.0000 C   0  0  0  0  0  0  0  0  0  0  0  0
    4.2365    3.3001    0.0000 C   0  0  0  0  0  0  0  0  0  0  0  0
    4.9509    1.2375    0.0000 C   0  0  0  0  0  0  0  0  0  0  0  0
    3.5220    1.2375    0.0000 C   0  0  0  0  0  0  0  0  0  0  0  0
    4.2365    0.0000    0.0000 C   0  0  0  0  0  0  0  0  0  0  0  0
    5.0615    3.3001    0.0000 C   0  0  0  0  0  0  0  0  0  0  0  0
    4.2365    4.1251    0.0000 C   0  0  0  0  0  0  0  0  0  0  0  0
    3.5220   -0.4125    0.0000 C   0  0  0  0  0  0  0  0  0  0  0  0
    3.5220   -1.2375    0.0000 C   0  0  0  0  0  0  0  0  0  0  0  0
    5.4740    4.0145    0.0000 C   0  0  0  0  0  0  0  0  0  0  0  0
    3.5220    4.5376    0.0000 C   0  0  0  0  0  0  0  0  0  0  0  0
    5.4740    2.5856    0.0000 C   0  0  0  0  0  0  0  0  0  0  0  0
    4.9509    4.5376    0.0000 C   0  0  0  0  0  0  0  0  0  0  0  0
    2.8075   -1.6500    0.0000 C   0  0  0  0  0  0  0  0  0  0  0  0
    6.2990    4.0145    0.0000 C   0  0  0  0  0  0  0  0  0  0  0  0
    3.5220    5.3626    0.0000 C   0  0  0  0  0  0  0  0  0  0  0  0
    6.2990    2.5856    0.0000 C   0  0  0  0  0  0  0  0  0  0  0  0
    4.9509    5.3626    0.0000 C   0  0  0  0  0  0  0  0  0  0  0  0
    2.8075   -2.4751    0.0000 C   0  0  0  0  0  0  0  0  0  0  0  0
    6.7115    3.3001    0.0000 C   0  0  0  0  0  0  0  0  0  0  0  0
    4.2365    5.7751    0.0000 C   0  0  0  0  0  0  0  0  0  0  0  0
    2.8075   -4.9501    0.0000 C   0  0  0  0  0  0  0  0  0  0  0  0
    2.8075   -4.1251    0.0000 C   0  0  0  0  0  0  0  0  0  0  0  0
    3.5220   -2.8876    0.0000 C   0  0  0  0  0  0  0  0  0  0  0  0
    2.0930   -2.8876    0.0000 C   0  0  0  0  0  0  0  0  0  0  0  0
    3.5220   -3.7126    0.0000 C   0  0  0  0  0  0  0  0  0  0  0  0
    2.0930   -3.7126    0.0000 C   0  0  0  0  0  0  0  0  0  0  0  0
    3.6326   -4.9501    0.0000 C   0  0  0  0  0  0  0  0  0  0  0  0
    1.9825   -4.9501    0.0000 C   0  0  0  0  0  0  0  0  0  0  0  0
    2.8075   -5.7751    0.0000 C   0  0  0  0  0  0  0  0  0  0  0  0
  1  7  1  0  0  0  0
  2 19  1  0  0  0  0
  3  8  1  0  0  0  0
  3  9  1  0  0  0  0
  3 10  1  0  0  0  0
  4  5  1  0  0  0  0
  4  6  1  0  0  0  0
  4  7  1  0  0  0  0
  5  8  1  0  0  0  0
  6  9  1  0  0  0  0
  7 11  1  0  0  0  0
  7 12  1  0  0  0  0
 10 13  1  0  0  0  0
 11 15  2  0  0  0  0
 11 17  1  0  0  0  0
 12 16  2  0  0  0  0
 12 18  1  0  0  0  0
 13 14  1  0  0  0  0
 14 19  1  0  0  0  0
 15 20  1  0  0  0  0
 16 21  1  0  0  0  0
 17 22  2  0  0  0  0
 18 23  2  0  0  0  0
 19 24  1  0  0  0  0
 20 25  2  0  0  0  0
 21 26  2  0  0  0  0
 22 25  1  0  0  0  0
 23 26  1  0  0  0  0
 24 29  2  0  0  0  0
 24 30  1  0  0  0  0
 27 28  1  0  0  0  0
 27 33  1  0  0  0  0
 27 34  1  0  0  0  0
 27 35  1  0  0  0  0
 28 31  2  0  0  0  0
 28 32  1  0  0  0  0
 29 31  1  0  0  0  0
 30 32  2  0  0  0  0
M  END
> <DRUGBANK_ID>
DB00342

> <DRUG_GROUPS>
approved; withdrawn

> <GENERIC_NAME>
Terfenadine

> <SYNONYMS>
Ternadin

> <BRANDS>
Aldaban; Allerplus; Cyater; Seldane; Teldane; Teldanex; Terdin; Terfex; Triludan

> <CHEMICAL_FORMULA>
C32H41NO2

> <MOLECULAR_WEIGHT>
471.6734

> <EXACT_MASS>
471.313729561

> <IUPAC_NAME>
1-(4-tert-butylphenyl)-4-[4-(hydroxydiphenylmethyl)piperidin-1-yl]butan-1-ol

> <INCHI_IDENTIFIER>
InChI=1S/C32H41NO2/c1-31(2,3)26-18-16-25(17-19-26)30(34)15-10-22-33-23-20-29(21-24-33)32(35,27-11-6-4-7-12-27)28-13-8-5-9-14-28/h4-9,11-14,16-19,29-30,34-35H,10,15,20-24H2,1-3H3

> <INCHI_KEY>
InChIKey=GUGOEEXESWIERI-UHFFFAOYSA-N

> <SMILES>
CC(C)(C)C1=CC=C(C=C1)C(O)CCCN1CCC(CC1)C(O)(C1=CC=CC=C1)C1=CC=CC=C1

> <JCHEM_ACCEPTOR_COUNT>
3

> <JCHEM_DONOR_COUNT>
2

> <JCHEM_ACIDIC_PKA>
13.2

> <JCHEM_BASIC_PKA>
9.02

> <JCHEM_PHYSIOLOGICAL_CHARGE>
1

> <ALOGPS_LOGP>
5.89

> <JCHEM_LOGP>
6.48

> <ALOGPS_LOGS>
-6

> <JCHEM_POLARIZABILITY>
56.45

> <JCHEM_POLAR_SURFACE_AREA>
43.7

> <JCHEM_REFRACTIVITY>
146.27

> <JCHEM_ROTATABLE_BOND_COUNT>
9

> <ALOGPS_SOLUBILITY>
4.58e-04 g/l __ 

$$$$
DB00365
ChemmineR-0317140124XD

 26 29  0  0  1  0            999 V2000
    7.1488    1.4608    0.0000 F   0  0  0  0  0  0  0  0  0  0  0  0
    4.2364    2.2658    0.0000 O   0  0  0  0  0  0  0  0  0  0  0  0
    2.0930    1.0283    0.0000 O   0  0  0  0  0  0  0  0  0  0  0  0
    2.8075    2.2658    0.0000 O   0  0  0  0  0  0  0  0  0  0  0  0
    4.2364   -0.2092    0.0000 N   0  0  0  0  0  0  0  0  0  0  0  0
    7.1488   -0.2291    0.0000 N   0  0  0  0  0  0  0  0  0  0  0  0
    8.5746   -1.0596    0.0000 N   0  0  0  0  0  0  0  0  0  0  0  0
    4.2364   -1.0342    0.0000 C   0  0  0  0  0  0  0  0  0  0  0  0
    4.6489   -1.7487    0.0000 C   0  0  0  0  0  0  0  0  0  0  0  0
    3.8239   -1.7487    0.0000 C   0  0  0  0  0  0  0  0  0  0  0  0
    4.9509    0.2033    0.0000 C   0  0  0  0  0  0  0  0  0  0  0  0
    3.5220    0.2033    0.0000 C   0  0  0  0  0  0  0  0  0  0  0  0
    4.9509    1.0283    0.0000 C   0  0  0  0  0  0  0  0  0  0  0  0
    6.4359    0.1861    0.0000 C   0  0  0  0  0  0  0  0  0  0  0  0
    7.1456   -1.0541    0.0000 C   0  0  0  0  0  0  0  0  0  0  0  0
    5.6884   -0.2378    0.0000 C   0  0  0  0  0  0  0  0  0  0  0  0
    7.8585   -1.4693    0.0000 C   0  0  0  0  0  0  0  0  0  0  0  0
    7.8649    0.1806    0.0000 C   0  0  0  0  0  0  0  0  0  0  0  0
    8.5778   -0.2346    0.0000 C   0  0  0  0  0  0  0  0  0  0  0  0
    5.6884    1.4694    0.0000 C   0  0  0  0  0  0  0  0  0  0  0  0
    3.5220    1.0283    0.0000 C   0  0  0  0  0  0  0  0  0  0  0  0
    4.2364    1.4408    0.0000 C   0  0  0  0  0  0  0  0  0  0  0  0
    6.4359    1.0455    0.0000 C   0  0  0  0  0  0  0  0  0  0  0  0
    7.8553   -2.2943    0.0000 C   0  0  0  0  0  0  0  0  0  0  0  0
    5.6789    2.2943    0.0000 C   0  0  0  0  0  0  0  0  0  0  0  0
    2.8075    1.4408    0.0000 C   0  0  0  0  0  0  0  0  0  0  0  0
  1 23  1  0  0  0  0
  2 22  2  0  0  0  0
  3 26  1  0  0  0  0
  4 26  2  0  0  0  0
  5  8  1  0  0  0  0
  5 11  1  0  0  0  0
  5 12  1  0  0  0  0
  6 14  1  0  0  0  0
  6 15  1  0  0  0  0
  6 18  1  0  0  0  0
  7 17  1  0  0  0  0
  7 19  1  0  0  0  0
  8  9  1  0  0  0  0
  8 10  1  0  0  0  0
  9 10  1  0  0  0  0
 11 13  1  0  0  0  0
 11 16  2  0  0  0  0
 12 21  2  0  0  0  0
 13 20  2  0  0  0  0
 13 22  1  0  0  0  0
 14 16  1  0  0  0  0
 14 23  2  0  0  0  0
 15 17  1  0  0  0  0
 17 24  1  0  0  0  0
 18 19  1  0  0  0  0
 20 23  1  0  0  0  0
 20 25  1  0  0  0  0
 21 22  1  0  0  0  0
 21 26  1  0  0  0  0
M  END
> <DRUGBANK_ID>
DB00365

> <DRUG_GROUPS>
approved; withdrawn

> <GENERIC_NAME>
Grepafloxacin

> <BRANDS>
Raxar

> <CHEMICAL_FORMULA>
C19H22FN3O3

> <MOLECULAR_WEIGHT>
359.3947

> <EXACT_MASS>
359.16451979

> <IUPAC_NAME>
1-cyclopropyl-6-fluoro-5-methyl-7-(3-methylpiperazin-1-yl)-4-oxo-1,4-dihydroquinoline-3-carboxylic acid

> <INCHI_IDENTIFIER>
InChI=1S/C19H22FN3O3/c1-10-8-22(6-5-21-10)15-7-14-16(11(2)17(15)20)18(24)13(19(25)26)9-23(14)12-3-4-12/h7,9-10,12,21H,3-6,8H2,1-2H3,(H,25,26)

> <INCHI_KEY>
InChIKey=AIJTTZAVMXIJGM-UHFFFAOYSA-N

> <SMILES>
CC1CN(CCN1)C1=C(F)C(C)=C2C(=O)C(=CN(C3CC3)C2=C1)C(O)=O

> <JCHEM_ACCEPTOR_COUNT>
6

> <JCHEM_DONOR_COUNT>
2

> <JCHEM_ACIDIC_PKA>
5.88

> <JCHEM_BASIC_PKA>
8.77

> <JCHEM_PHYSIOLOGICAL_CHARGE>
0

> <ALOGPS_LOGP>
-0.12

> <JCHEM_LOGP>
0.12

> <ALOGPS_LOGS>
-2.8

> <JCHEM_POLARIZABILITY>
37.69

> <JCHEM_POLAR_SURFACE_AREA>
72.88

> <JCHEM_REFRACTIVITY>
97.4

> <JCHEM_ROTATABLE_BOND_COUNT>
3

> <ALOGPS_SOLUBILITY>
6.32e-01 g/l __ 

$$$$
DB00397
ChemmineR-0317140124XD

 11 11  0  0  1  0            999 V2000
    1.6500    0.9034    0.0000 O   0  0  0  0  0  0  0  0  0  0  0  0
    3.0790    1.7284    0.0000 N   0  0  0  0  0  0  0  0  0  0  0  0
    2.3645    0.4909    0.0000 C   0  0  2  0  0  0  0  0  0  0  0  0
    3.0790    0.9034    0.0000 C   0  0  1  0  0  0  0  0  0  0  0  0
    2.3645   -0.3341    0.0000 C   0  0  0  0  0  0  0  0  0  0  0  0
    3.7935    0.4909    0.0000 C   0  0  0  0  0  0  0  0  0  0  0  0
    3.0790   -0.7466    0.0000 C   0  0  0  0  0  0  0  0  0  0  0  0
    1.6500   -0.7466    0.0000 C   0  0  0  0  0  0  0  0  0  0  0  0
    3.0790   -1.5717    0.0000 C   0  0  0  0  0  0  0  0  0  0  0  0
    1.6500   -1.5717    0.0000 C   0  0  0  0  0  0  0  0  0  0  0  0
    2.3645   -1.9842    0.0000 C   0  0  0  0  0  0  0  0  0  0  0  0
  3  1  1  6  0  0  0
  4  2  1  6  0  0  0
  3  4  1  0  0  0  0
  3  5  1  0  0  0  0
  4  6  1  0  0  0  0
  5  7  2  0  0  0  0
  5  8  1  0  0  0  0
  7  9  1  0  0  0  0
  8 10  2  0  0  0  0
  9 11  2  0  0  0  0
 10 11  1  0  0  0  0
M  END
> <DRUGBANK_ID>
DB00397

> <DRUG_GROUPS>
approved; withdrawn

> <GENERIC_NAME>
Phenylpropanolamine

> <SYNONYMS>
(+-)-Phenylpropanolamine; (+/-)-Norephedrin

> <BRANDS>
Acutrim; Ami-Tex; Codimal; Conex; Contuss; Despec; Dexatrim; Dura-Vent; Gentab; Guaipax; Myminic; Nolex; Partuss; Phenoxine; Phenyldrine; Phenylfenesin; Propagest; Rhindecon; Rhymed; Snaplets; ULR; Vanex

> <CHEMICAL_FORMULA>
C9H13NO

> <MOLECULAR_WEIGHT>
151.2056

> <EXACT_MASS>
151.099714043

> <IUPAC_NAME>
(1S,2R)-2-amino-1-phenylpropan-1-ol

> <INCHI_IDENTIFIER>
InChI=1S/C9H13NO/c1-7(10)9(11)8-5-3-2-4-6-8/h2-7,9,11H,10H2,1H3/t7-,9-/m1/s1

> <INCHI_KEY>
InChIKey=DLNKOYKMWOXYQA-VXNVDRBHSA-N

> <SMILES>
C[C@@H](N)[C@@H](O)C1=CC=CC=C1

> <JCHEM_ACCEPTOR_COUNT>
2

> <JCHEM_DONOR_COUNT>
2

> <JCHEM_ACIDIC_PKA>
13.9

> <JCHEM_BASIC_PKA>
9.37

> <JCHEM_PHYSIOLOGICAL_CHARGE>
1

> <ALOGPS_LOGP>
0.57

> <JCHEM_LOGP>
0.89

> <ALOGPS_LOGS>
-0.87

> <JCHEM_POLARIZABILITY>
16.98

> <JCHEM_POLAR_SURFACE_AREA>
46.25

> <JCHEM_REFRACTIVITY>
44.91

> <JCHEM_ROTATABLE_BOND_COUNT>
2

> <ALOGPS_SOLUBILITY>
2.06e+01 g/l __ 

$$$$
DB00407
ChemmineR-0317140124XD

 70 73  0  0  1  0            999 V2000
    5.2224    2.7597    0.0000 S   0  0  0  0  0  0  0  0  0  0  0  0
    3.7935    1.1096    0.0000 S   0  0  0  0  0  0  0  0  0  0  0  0
    9.5094   -1.3654    0.0000 S   0  0  0  0  0  0  0  0  0  0  0  0
    2.3645   -1.3654    0.0000 S   0  0  0  0  0  0  0  0  0  0  0  0
   12.3674   -2.1904    0.0000 S   0  0  0  0  0  0  0  0  0  0  0  0
    6.6515    0.2846    0.0000 O   0  0  0  0  0  0  0  0  0  0  0  0
    7.3659    1.5222    0.0000 O   0  0  0  0  0  0  0  0  0  0  0  0
    4.5080   -0.1279    0.0000 O   0  0  0  0  0  0  0  0  0  0  0  0
    9.5094    1.1096    0.0000 O   0  0  0  0  0  0  0  0  0  0  0  0
   10.2239   -0.1279    0.0000 O   0  0  0  0  0  0  0  0  0  0  0  0
    4.5080    1.5222    0.0000 O   0  0  0  0  0  0  0  0  0  0  0  0
   12.3674    0.2846    0.0000 O   0  0  0  0  0  0  0  0  0  0  0  0
    5.2224   -1.3654    0.0000 O   0  0  0  0  0  0  0  0  0  0  0  0
    8.7949   -0.9529    0.0000 O   0  0  0  0  0  0  0  0  0  0  0  0
    7.3659   -0.1279    0.0000 O   0  0  0  0  0  0  0  0  0  0  0  0
   10.2239    1.5222    0.0000 O   0  0  0  0  0  0  0  0  0  0  0  0
    3.0790   -0.9529    0.0000 O   0  0  0  0  0  0  0  0  0  0  0  0
    6.6515   -1.3654    0.0000 O   0  0  0  0  0  0  0  0  0  0  0  0
    3.0790   -2.6029    0.0000 O   0  0  0  0  0  0  0  0  0  0  0  0
   13.0818    1.5222    0.0000 O   0  0  0  0  0  0  0  0  0  0  0  0
    4.5080   -3.4280    0.0000 O   0  0  0  0  0  0  0  0  0  0  0  0
   12.3674   -1.3654    0.0000 O   0  0  0  0  0  0  0  0  0  0  0  0
    9.5094    2.7597    0.0000 O   0  0  0  0  0  0  0  0  0  0  0  0
    4.5080    3.1722    0.0000 O   0  0  0  0  0  0  0  0  0  0  0  0
    8.0804    2.7597    0.0000 O   0  0  0  0  0  0  0  0  0  0  0  0
    5.6350    3.4742    0.0000 O   0  0  0  0  0  0  0  0  0  0  0  0
    4.8099    2.0452    0.0000 O   0  0  0  0  0  0  0  0  0  0  0  0
    3.0790    0.6971    0.0000 O   0  0  0  0  0  0  0  0  0  0  0  0
    3.3810    1.8241    0.0000 O   0  0  0  0  0  0  0  0  0  0  0  0
    4.2060    0.3952    0.0000 O   0  0  0  0  0  0  0  0  0  0  0  0
   10.2239   -1.7779    0.0000 O   0  0  0  0  0  0  0  0  0  0  0  0
    6.6515   -2.1904    0.0000 O   0  0  0  0  0  0  0  0  0  0  0  0
    9.0969   -2.0799    0.0000 O   0  0  0  0  0  0  0  0  0  0  0  0
    9.9219   -0.6509    0.0000 O   0  0  0  0  0  0  0  0  0  0  0  0
    5.9370   -3.4280    0.0000 O   0  0  0  0  0  0  0  0  0  0  0  0
    1.6500   -1.7779    0.0000 O   0  0  0  0  0  0  0  0  0  0  0  0
   13.0818    2.3472    0.0000 O   0  0  0  0  0  0  0  0  0  0  0  0
    2.7770   -2.0799    0.0000 O   0  0  0  0  0  0  0  0  0  0  0  0
    1.9520   -0.6509    0.0000 O   0  0  0  0  0  0  0  0  0  0  0  0
   12.3674   -3.0154    0.0000 O   0  0  0  0  0  0  0  0  0  0  0  0
   13.1924   -2.1904    0.0000 O   0  0  0  0  0  0  0  0  0  0  0  0
   11.5423   -2.1904    0.0000 O   0  0  0  0  0  0  0  0  0  0  0  0
    5.9370    2.3472    0.0000 N   0  0  0  0  0  0  0  0  0  0  0  0
   11.6529    2.3472    0.0000 N   0  0  0  0  0  0  0  0  0  0  0  0
    5.9370    1.5222    0.0000 C   0  0  0  0  0  0  0  0  0  0  0  0
    5.2224    1.1096    0.0000 C   0  0  0  0  0  0  0  0  0  0  0  0
    5.2224    0.2846    0.0000 C   0  0  0  0  0  0  0  0  0  0  0  0
    6.6515    1.1096    0.0000 C   0  0  0  0  0  0  0  0  0  0  0  0
    5.9370   -0.1279    0.0000 C   0  0  0  0  0  0  0  0  0  0  0  0
    8.0804    1.1096    0.0000 C   0  0  0  0  0  0  0  0  0  0  0  0
    8.0804    0.2846    0.0000 C   0  0  0  0  0  0  0  0  0  0  0  0
    8.7949   -0.1279    0.0000 C   0  0  0  0  0  0  0  0  0  0  0  0
    9.5094    0.2846    0.0000 C   0  0  0  0  0  0  0  0  0  0  0  0
    8.7949    1.5222    0.0000 C   0  0  0  0  0  0  0  0  0  0  0  0
   10.9383    0.2846    0.0000 C   0  0  0  0  0  0  0  0  0  0  0  0
    4.5080   -0.9529    0.0000 C   0  0  0  0  0  0  0  0  0  0  0  0
   10.9383    1.1096    0.0000 C   0  0  0  0  0  0  0  0  0  0  0  0
   11.6529   -0.1279    0.0000 C   0  0  0  0  0  0  0  0  0  0  0  0
   11.6529    1.5222    0.0000 C   0  0  0  0  0  0  0  0  0  0  0  0
    5.9370   -0.9529    0.0000 C   0  0  0  0  0  0  0  0  0  0  0  0
    3.7935   -1.3654    0.0000 C   0  0  0  0  0  0  0  0  0  0  0  0
    3.7935   -2.1904    0.0000 C   0  0  0  0  0  0  0  0  0  0  0  0
   12.3674    1.1096    0.0000 C   0  0  0  0  0  0  0  0  0  0  0  0
    4.5080   -2.6029    0.0000 C   0  0  0  0  0  0  0  0  0  0  0  0
    5.2224   -2.1904    0.0000 C   0  0  0  0  0  0  0  0  0  0  0  0
    8.7949    2.3472    0.0000 C   0  0  0  0  0  0  0  0  0  0  0  0
   11.6529   -0.9529    0.0000 C   0  0  0  0  0  0  0  0  0  0  0  0
    5.9370   -2.6029    0.0000 C   0  0  0  0  0  0  0  0  0  0  0  0
   12.3674    2.7597    0.0000 C   0  0  0  0  0  0  0  0  0  0  0  0
   12.3674    3.5847    0.0000 C   0  0  0  0  0  0  0  0  0  0  0  0
  1 24  1  0  0  0  0
  1 26  2  0  0  0  0
  1 27  2  0  0  0  0
  1 43  1  0  0  0  0
  2 11  1  0  0  0  0
  2 28  1  0  0  0  0
  2 29  2  0  0  0  0
  2 30  2  0  0  0  0
  3 14  1  0  0  0  0
  3 31  1  0  0  0  0
  3 33  2  0  0  0  0
  3 34  2  0  0  0  0
  4 17  1  0  0  0  0
  4 36  1  0  0  0  0
  4 38  2  0  0  0  0
  4 39  2  0  0  0  0
  5 22  1  0  0  0  0
  5 40  1  0  0  0  0
  5 41  2  0  0  0  0
  5 42  2  0  0  0  0
  6 48  1  0  0  0  0
  6 49  1  0  0  0  0
  7 48  1  0  0  0  0
  7 50  1  0  0  0  0
  8 47  1  0  0  0  0
  8 56  1  0  0  0  0
  9 53  1  0  0  0  0
  9 54  1  0  0  0  0
 10 53  1  0  0  0  0
 10 55  1  0  0  0  0
 11 46  1  0  0  0  0
 12 58  1  0  0  0  0
 12 63  1  0  0  0  0
 13 56  1  0  0  0  0
 13 65  1  0  0  0  0
 14 52  1  0  0  0  0
 15 51  1  0  0  0  0
 16 57  1  0  0  0  0
 17 61  1  0  0  0  0
 18 60  1  0  0  0  0
 19 62  1  0  0  0  0
 20 63  1  0  0  0  0
 21 64  1  0  0  0  0
 22 67  1  0  0  0  0
 23 66  1  0  0  0  0
 25 66  2  0  0  0  0
 32 68  1  0  0  0  0
 35 68  2  0  0  0  0
 37 69  2  0  0  0  0
 43 45  1  0  0  0  0
 44 59  1  0  0  0  0
 44 69  1  0  0  0  0
 45 46  1  0  0  0  0
 45 48  1  0  0  0  0
 46 47  1  0  0  0  0
 47 49  1  0  0  0  0
 49 60  1  0  0  0  0
 50 51  1  0  0  0  0
 50 54  1  0  0  0  0
 51 52  1  0  0  0  0
 52 53  1  0  0  0  0
 54 66  1  0  0  0  0
 55 57  1  0  0  0  0
 55 58  1  0  0  0  0
 56 61  1  0  0  0  0
 57 59  1  0  0  0  0
 58 67  1  0  0  0  0
 59 63  1  0  0  0  0
 61 62  1  0  0  0  0
 62 64  1  0  0  0  0
 64 65  1  0  0  0  0
 65 68  1  0  0  0  0
 69 70  1  0  0  0  0
M  END
> <DRUGBANK_ID>
DB00407

> <DRUG_GROUPS>
approved; withdrawn

> <GENERIC_NAME>
Ardeparin

> <BRANDS>
Normiflo

> <CHEMICAL_FORMULA>
C26H42N2O37S5

> <MOLECULAR_WEIGHT>
1134.928

> <EXACT_MASS>
1134.006993818

> <IUPAC_NAME>
3-[(5-{[6-carboxy-4,5-dihydroxy-3-(sulfooxy)oxan-2-yl]oxy}-6-(hydroxymethyl)-3-(sulfoamino)-4-(sulfooxy)oxan-2-yl)oxy]-6-({5-acetamido-4,6-dihydroxy-2-[(sulfooxy)methyl]oxan-3-yl}oxy)-4-hydroxy-5-(sulfooxy)oxane-2-carboxylic acid

> <INCHI_IDENTIFIER>
InChI=1S/C26H42N2O37S5/c1-4(30)27-7-9(31)13(6(56-23(7)39)3-55-67(43,44)45)58-26-19(65-70(52,53)54)12(34)16(20(62-26)22(37)38)60-24-8(28-66(40,41)42)15(63-68(46,47)48)14(5(2-29)57-24)59-25-18(64-69(49,50)51)11(33)10(32)17(61-25)21(35)36/h5-20,23-26,28-29,31-34,39H,2-3H2,1H3,(H,27,30)(H,35,36)(H,37,38)(H,40,41,42)(H,43,44,45)(H,46,47,48)(H,49,50,51)(H,52,53,54)

> <INCHI_KEY>
InChIKey=HTTJABKRGRZYRN-UHFFFAOYSA-N

> <SMILES>
CC(=O)NC1C(O)OC(COS(O)(=O)=O)C(OC2OC(C(OC3OC(CO)C(OC4OC(C(O)C(O)C4OS(O)(=O)=O)C(O)=O)C(OS(O)(=O)=O)C3NS(O)(=O)=O)C(O)C2OS(O)(=O)=O)C(O)=O)C1O

> <JCHEM_ACCEPTOR_COUNT>
33

> <JCHEM_DONOR_COUNT>
15

> <JCHEM_ACIDIC_PKA>
-2.8

> <JCHEM_PHYSIOLOGICAL_CHARGE>
-7

> <ALOGPS_LOGP>
-1.7

> <JCHEM_LOGP>
-8.3

> <ALOGPS_LOGS>
-2

> <JCHEM_POLARIZABILITY>
93.37

> <JCHEM_POLAR_SURFACE_AREA>
610.49

> <JCHEM_REFRACTIVITY>
195.91

> <JCHEM_ROTATABLE_BOND_COUNT>
20

> <ALOGPS_SOLUBILITY>
1.08e+01 g/l __ 

$$$$
DB00409
ChemmineR-0317140124XD

 22 23  0  0  1  0            999 V2000
    2.3645   -2.5585    0.0000 Br   0  0  0  0  0  0  0  0  0  0  0  0
    3.0791    0.3290    0.0000 O    0  0  0  0  0  0  0  0  0  0  0  0
    2.3645   -0.9085    0.0000 O    0  0  0  0  0  0  0  0  0  0  0  0
    5.2224   -0.9085    0.0000 O    0  0  0  0  0  0  0  0  0  0  0  0
    5.9762    1.2309    0.0000 N    0  0  0  0  0  0  0  0  0  0  0  0
    4.5080    0.3290    0.0000 N    0  0  0  0  0  0  0  0  0  0  0  0
    5.2224    1.5665    0.0000 C    0  0  1  0  0  0  0  0  0  0  0  0
    5.3087    2.3870    0.0000 C    0  0  0  0  0  0  0  0  0  0  0  0
    6.1157    2.5585    0.0000 C    0  0  0  0  0  0  0  0  0  0  0  0
    6.5282    1.8441    0.0000 C    0  0  0  0  0  0  0  0  0  0  0  0
    4.5080    1.1540    0.0000 C    0  0  0  0  0  0  0  0  0  0  0  0
    6.1477    0.4240    0.0000 C    0  0  0  0  0  0  0  0  0  0  0  0
    6.9323    0.1690    0.0000 C    0  0  0  0  0  0  0  0  0  0  0  0
    3.7935   -0.0835    0.0000 C    0  0  0  0  0  0  0  0  0  0  0  0
    3.7935   -0.9085    0.0000 C    0  0  0  0  0  0  0  0  0  0  0  0
    3.0791   -1.3210    0.0000 C    0  0  0  0  0  0  0  0  0  0  0  0
    4.5080   -1.3210    0.0000 C    0  0  0  0  0  0  0  0  0  0  0  0
    3.0791   -2.1460    0.0000 C    0  0  0  0  0  0  0  0  0  0  0  0
    4.5080   -2.1460    0.0000 C    0  0  0  0  0  0  0  0  0  0  0  0
    3.7935   -2.5585    0.0000 C    0  0  0  0  0  0  0  0  0  0  0  0
    1.6500   -1.3210    0.0000 C    0  0  0  0  0  0  0  0  0  0  0  0
    5.9370   -1.3210    0.0000 C    0  0  0  0  0  0  0  0  0  0  0  0
  1 18  1  0  0  0  0
  2 14  2  0  0  0  0
  3 16  1  0  0  0  0
  3 21  1  0  0  0  0
  4 17  1  0  0  0  0
  4 22  1  0  0  0  0
  5  7  1  0  0  0  0
  5 10  1  0  0  0  0
  5 12  1  0  0  0  0
  6 11  1  0  0  0  0
  6 14  1  0  0  0  0
  7  8  1  0  0  0  0
  7 11  1  6  0  0  0
  8  9  1  0  0  0  0
  9 10  1  0  0  0  0
 12 13  1  0  0  0  0
 14 15  1  0  0  0  0
 15 16  1  0  0  0  0
 15 17  2  0  0  0  0
 16 18  2  0  0  0  0
 17 19  1  0  0  0  0
 18 20  1  0  0  0  0
 19 20  2  0  0  0  0
M  END
> <DRUGBANK_ID>
DB00409

> <DRUG_GROUPS>
approved; withdrawn

> <GENERIC_NAME>
Remoxipride

> <SYNONYMS>
Remoxiprida [INN-Spanish]; Remoxipride [Usan:Ban:Inn]; Remoxipridum [INN-Latin]; Romoxipride

> <CHEMICAL_FORMULA>
C16H23BrN2O3

> <MOLECULAR_WEIGHT>
371.269

> <EXACT_MASS>
370.089205259

> <IUPAC_NAME>
3-bromo-N-{[(2S)-1-ethylpyrrolidin-2-yl]methyl}-2,6-dimethoxybenzamide

> <INCHI_IDENTIFIER>
InChI=1S/C16H23BrN2O3/c1-4-19-9-5-6-11(19)10-18-16(20)14-13(21-2)8-7-12(17)15(14)22-3/h7-8,11H,4-6,9-10H2,1-3H3,(H,18,20)/t11-/m0/s1

> <INCHI_KEY>
InChIKey=GUJRSXAPGDDABA-NSHDSACASA-N

> <SMILES>
CCN1CCC[C@H]1CNC(=O)C1=C(OC)C=CC(Br)=C1OC

> <JCHEM_ACCEPTOR_COUNT>
4

> <JCHEM_DONOR_COUNT>
1

> <JCHEM_ACIDIC_PKA>
13.06

> <JCHEM_BASIC_PKA>
8.4

> <JCHEM_PHYSIOLOGICAL_CHARGE>
1

> <ALOGPS_LOGP>
2.94

> <JCHEM_LOGP>
2.34

> <ALOGPS_LOGS>
-3.5

> <JCHEM_POLARIZABILITY>
36.25

> <JCHEM_POLAR_SURFACE_AREA>
50.8

> <JCHEM_REFRACTIVITY>
90.56

> <JCHEM_ROTATABLE_BOND_COUNT>
6

> <ALOGPS_SOLUBILITY>
1.27e-01 g/l __ 

$$$$
DB00439
ChemmineR-0317140124XD

 33 34  0  0  1  0            999 V2000
    8.5234    2.9833    0.0000 F   0  0  0  0  0  0  0  0  0  0  0  0
   10.6668   -0.7293    0.0000 O   0  0  0  0  0  0  0  0  0  0  0  0
    5.6655    0.5082    0.0000 O   0  0  0  0  0  0  0  0  0  0  0  0
    4.2365    0.5082    0.0000 O   0  0  0  0  0  0  0  0  0  0  0  0
    2.0930   -0.7293    0.0000 O   0  0  0  0  0  0  0  0  0  0  0  0
    2.8075    0.5082    0.0000 O   0  0  0  0  0  0  0  0  0  0  0  0
    8.5234   -1.9668    0.0000 N   0  0  0  0  0  0  0  0  0  0  0  0
    9.2379   -1.5543    0.0000 C   0  0  0  0  0  0  0  0  0  0  0  0
    7.8089   -1.5543    0.0000 C   0  0  0  0  0  0  0  0  0  0  0  0
    9.2379   -0.7293    0.0000 C   0  0  0  0  0  0  0  0  0  0  0  0
    7.8089   -0.7293    0.0000 C   0  0  0  0  0  0  0  0  0  0  0  0
    8.5234   -0.3168    0.0000 C   0  0  0  0  0  0  0  0  0  0  0  0
    7.3964   -2.2688    0.0000 C   0  0  0  0  0  0  0  0  0  0  0  0
    9.9524   -1.9668    0.0000 C   0  0  0  0  0  0  0  0  0  0  0  0
    9.9524   -0.3168    0.0000 C   0  0  0  0  0  0  0  0  0  0  0  0
    8.5234    0.5082    0.0000 C   0  0  0  0  0  0  0  0  0  0  0  0
    7.0944   -0.3168    0.0000 C   0  0  0  0  0  0  0  0  0  0  0  0
    5.6655   -0.3168    0.0000 C   0  0  1  0  0  0  0  0  0  0  0  0
    6.5714   -2.2687    0.0000 C   0  0  0  0  0  0  0  0  0  0  0  0
    7.8090   -2.9833    0.0000 C   0  0  0  0  0  0  0  0  0  0  0  0
   10.6668   -1.5543    0.0000 C   0  0  0  0  0  0  0  0  0  0  0  0
    9.9524   -2.7919    0.0000 C   0  0  0  0  0  0  0  0  0  0  0  0
    4.9509   -0.7293    0.0000 C   0  0  0  0  0  0  0  0  0  0  0  0
    6.3799   -0.7293    0.0000 C   0  0  0  0  0  0  0  0  0  0  0  0
    4.2365   -0.3168    0.0000 C   0  0  2  0  0  0  0  0  0  0  0  0
    7.8089    0.9207    0.0000 C   0  0  0  0  0  0  0  0  0  0  0  0
    9.2379    0.9207    0.0000 C   0  0  0  0  0  0  0  0  0  0  0  0
    3.5220   -0.7293    0.0000 C   0  0  0  0  0  0  0  0  0  0  0  0
    7.8089    1.7457    0.0000 C   0  0  0  0  0  0  0  0  0  0  0  0
    9.2379    1.7457    0.0000 C   0  0  0  0  0  0  0  0  0  0  0  0
    8.5234    2.1582    0.0000 C   0  0  0  0  0  0  0  0  0  0  0  0
   11.3814   -0.3168    0.0000 C   0  0  0  0  0  0  0  0  0  0  0  0
    2.8075   -0.3168    0.0000 C   0  0  0  0  0  0  0  0  0  0  0  0
  1 31  1  0  0  0  0
  2 15  1  0  0  0  0
  2 32  1  0  0  0  0
 18  3  1  6  0  0  0
 25  4  1  6  0  0  0
  5 33  1  0  0  0  0
  6 33  2  0  0  0  0
  7  8  2  0  0  0  0
  7  9  1  0  0  0  0
  8 10  1  0  0  0  0
  8 14  1  0  0  0  0
  9 11  2  0  0  0  0
  9 13  1  0  0  0  0
 10 12  2  0  0  0  0
 10 15  1  0  0  0  0
 11 12  1  0  0  0  0
 11 17  1  0  0  0  0
 12 16  1  0  0  0  0
 13 19  1  0  0  0  0
 13 20  1  0  0  0  0
 14 21  1  0  0  0  0
 14 22  1  0  0  0  0
 16 26  2  0  0  0  0
 16 27  1  0  0  0  0
 17 24  2  0  0  0  0
 18 23  1  0  0  0  0
 18 24  1  0  0  0  0
 23 25  1  0  0  0  0
 25 28  1  0  0  0  0
 26 29  1  0  0  0  0
 27 30  2  0  0  0  0
 28 33  1  0  0  0  0
 29 31  2  0  0  0  0
 30 31  1  0  0  0  0
M  END
> <DRUGBANK_ID>
DB00439

> <DRUG_GROUPS>
withdrawn

> <GENERIC_NAME>
Cerivastatin

> <SYNONYMS>
Cerivastatin sodium; Cerivastatin, sodium salt

> <BRANDS>
Baycol; Lipobay; Rivastatin

> <CHEMICAL_FORMULA>
C26H34FNO5

> <MOLECULAR_WEIGHT>
459.5503

> <EXACT_MASS>
459.242101408

> <IUPAC_NAME>
(3R,5S,6E)-7-[4-(4-fluorophenyl)-5-(methoxymethyl)-2,6-bis(propan-2-yl)pyridin-3-yl]-3,5-dihydroxyhept-6-enoic acid

> <INCHI_IDENTIFIER>
InChI=1S/C26H34FNO5/c1-15(2)25-21(11-10-19(29)12-20(30)13-23(31)32)24(17-6-8-18(27)9-7-17)22(14-33-5)26(28-25)16(3)4/h6-11,15-16,19-20,29-30H,12-14H2,1-5H3,(H,31,32)/b11-10+/t19-,20-/m1/s1

> <INCHI_KEY>
InChIKey=SEERZIQQUAZTOL-ANMDKAQQSA-N

> <SMILES>
COCC1=C(C2=CC=C(F)C=C2)C(\C=C\[C@@H](O)C[C@@H](O)CC(O)=O)=C(C(C)C)N=C1C(C)C

> <JCHEM_ACCEPTOR_COUNT>
6

> <JCHEM_DONOR_COUNT>
3

> <JCHEM_ACIDIC_PKA>
4.05

> <JCHEM_BASIC_PKA>
5.58

> <JCHEM_PHYSIOLOGICAL_CHARGE>
-1

> <ALOGPS_LOGP>
4.15

> <JCHEM_LOGP>
2.67

> <ALOGPS_LOGS>
-5

> <JCHEM_POLARIZABILITY>
50.23

> <JCHEM_POLAR_SURFACE_AREA>
99.88

> <JCHEM_REFRACTIVITY>
126.82

> <JCHEM_ROTATABLE_BOND_COUNT>
11

> <ALOGPS_SOLUBILITY>
4.19e-03 g/l __ 

$$$$
DB00533
ChemmineR-0317140124XD

 22 24  0  0  0  0            999 V2000
    4.6713   -2.2060    0.0000 S   0  0  0  0  0  0  0  0  0  0  0  0
    5.0838    2.3636    0.0000 O   0  0  0  0  0  0  0  0  0  0  0  0
    3.7739    3.0310    0.0000 O   0  0  0  0  0  0  0  0  0  0  0  0
    3.8463   -2.2060    0.0000 O   0  0  0  0  0  0  0  0  0  0  0  0
    5.4963   -2.2060    0.0000 O   0  0  0  0  0  0  0  0  0  0  0  0
    4.6713    1.0940    0.0000 C   0  0  0  0  0  0  0  0  0  0  0  0
    4.6713    0.2690    0.0000 C   0  0  0  0  0  0  0  0  0  0  0  0
    4.0039    1.5790    0.0000 C   0  0  0  0  0  0  0  0  0  0  0  0
    5.3388    1.5790    0.0000 C   0  0  0  0  0  0  0  0  0  0  0  0
    4.6713   -1.3810    0.0000 C   0  0  0  0  0  0  0  0  0  0  0  0
    3.2192    1.3240    0.0000 C   0  0  0  0  0  0  0  0  0  0  0  0
    5.3858   -0.1435    0.0000 C   0  0  0  0  0  0  0  0  0  0  0  0
    3.9569   -0.1435    0.0000 C   0  0  0  0  0  0  0  0  0  0  0  0
    4.2588    2.3636    0.0000 C   0  0  0  0  0  0  0  0  0  0  0  0
    5.3858   -0.9685    0.0000 C   0  0  0  0  0  0  0  0  0  0  0  0
    3.9569   -0.9685    0.0000 C   0  0  0  0  0  0  0  0  0  0  0  0
    3.0477    0.5170    0.0000 C   0  0  0  0  0  0  0  0  0  0  0  0
    2.6062    1.8761    0.0000 C   0  0  0  0  0  0  0  0  0  0  0  0
    4.6713   -3.0310    0.0000 C   0  0  0  0  0  0  0  0  0  0  0  0
    2.2631    0.2621    0.0000 C   0  0  0  0  0  0  0  0  0  0  0  0
    1.8215    1.6211    0.0000 C   0  0  0  0  0  0  0  0  0  0  0  0
    1.6500    0.8141    0.0000 C   0  0  0  0  0  0  0  0  0  0  0  0
  1  4  2  0  0  0  0
  1  5  2  0  0  0  0
  1 10  1  0  0  0  0
  1 19  1  0  0  0  0
  2  9  1  0  0  0  0
  2 14  1  0  0  0  0
  3 14  2  0  0  0  0
  6  7  1  0  0  0  0
  6  8  2  0  0  0  0
  6  9  1  0  0  0  0
  7 12  2  0  0  0  0
  7 13  1  0  0  0  0
  8 11  1  0  0  0  0
  8 14  1  0  0  0  0
 10 15  2  0  0  0  0
 10 16  1  0  0  0  0
 11 17  2  0  0  0  0
 11 18  1  0  0  0  0
 12 15  1  0  0  0  0
 13 16  2  0  0  0  0
 17 20  1  0  0  0  0
 18 21  2  0  0  0  0
 20 22  2  0  0  0  0
 21 22  1  0  0  0  0
M  END
> <DRUGBANK_ID>
DB00533

> <DRUG_GROUPS>
withdrawn; investigational

> <GENERIC_NAME>
Rofecoxib

> <SYNONYMS>
MK 966; MK 996

> <BRANDS>
Vioxx

> <CHEMICAL_FORMULA>
C17H14O4S

> <MOLECULAR_WEIGHT>
314.356

> <EXACT_MASS>
314.061279626

> <IUPAC_NAME>
4-(4-methanesulfonylphenyl)-3-phenyl-2,5-dihydrofuran-2-one

> <INCHI_IDENTIFIER>
InChI=1S/C17H14O4S/c1-22(19,20)14-9-7-12(8-10-14)15-11-21-17(18)16(15)13-5-3-2-4-6-13/h2-10H,11H2,1H3

> <INCHI_KEY>
InChIKey=RZJQGNCSTQAWON-UHFFFAOYSA-N

> <SMILES>
CS(=O)(=O)C1=CC=C(C=C1)C1=C(C(=O)OC1)C1=CC=CC=C1

> <JCHEM_ACCEPTOR_COUNT>
3

> <JCHEM_DONOR_COUNT>
0

> <JCHEM_ACIDIC_PKA>
14.84

> <JCHEM_BASIC_PKA>
-7

> <JCHEM_PHYSIOLOGICAL_CHARGE>
0

> <ALOGPS_LOGP>
2.32

> <JCHEM_LOGP>
2.56

> <ALOGPS_LOGS>
-4.5

> <JCHEM_POLARIZABILITY>
31.74

> <JCHEM_POLAR_SURFACE_AREA>
60.44

> <JCHEM_REFRACTIVITY>
84.08

> <JCHEM_ROTATABLE_BOND_COUNT>
3

> <ALOGPS_SOLUBILITY>
1.06e-02 g/l __ 

$$$$
DB00574
ChemmineR-0317140124XD

 16 16  0  0  1  0            999 V2000
    3.6830    2.0625    0.0000 F   0  0  0  0  0  0  0  0  0  0  0  0
    5.3330    2.0625    0.0000 F   0  0  0  0  0  0  0  0  0  0  0  0
    4.5080    2.8876    0.0000 F   0  0  0  0  0  0  0  0  0  0  0  0
    2.3645   -1.6500    0.0000 N   0  0  0  0  0  0  0  0  0  0  0  0
    3.0791   -1.2375    0.0000 C   0  0  0  0  0  0  0  0  0  0  0  0
    3.0791   -0.4125    0.0000 C   0  0  0  0  0  0  0  0  0  0  0  0
    3.7935    0.0000    0.0000 C   0  0  0  0  0  0  0  0  0  0  0  0
    3.7935   -1.6500    0.0000 C   0  0  0  0  0  0  0  0  0  0  0  0
    2.3645   -2.4751    0.0000 C   0  0  0  0  0  0  0  0  0  0  0  0
    3.7935    0.8250    0.0000 C   0  0  0  0  0  0  0  0  0  0  0  0
    4.5080   -0.4125    0.0000 C   0  0  0  0  0  0  0  0  0  0  0  0
    4.5080    1.2375    0.0000 C   0  0  0  0  0  0  0  0  0  0  0  0
    5.2224    0.0000    0.0000 C   0  0  0  0  0  0  0  0  0  0  0  0
    5.2224    0.8250    0.0000 C   0  0  0  0  0  0  0  0  0  0  0  0
    1.6500   -2.8876    0.0000 C   0  0  0  0  0  0  0  0  0  0  0  0
    4.5080    2.0625    0.0000 C   0  0  0  0  0  0  0  0  0  0  0  0
  1 16  1  0  0  0  0
  2 16  1  0  0  0  0
  3 16  1  0  0  0  0
  4  5  1  0  0  0  0
  4  9  1  0  0  0  0
  5  6  1  0  0  0  0
  5  8  1  0  0  0  0
  6  7  1  0  0  0  0
  7 10  2  0  0  0  0
  7 11  1  0  0  0  0
  9 15  1  0  0  0  0
 10 12  1  0  0  0  0
 11 13  2  0  0  0  0
 12 14  2  0  0  0  0
 12 16  1  0  0  0  0
 13 14  1  0  0  0  0
M  END
> <DRUGBANK_ID>
DB00574

> <DRUG_GROUPS>
illicit; withdrawn

> <GENERIC_NAME>
Fenfluramine

> <SYNONYMS>
DEA No. 1670; Fenfluramina [DCIT]; Fenfluramine Hydrochloride; Fenfluraminum [INN-Latin]

> <BRANDS>
Acino; Adipomin; Obedrex; Pesos; Ponderax Pa; Ponderex; Pondimin; Rotondin

> <CHEMICAL_FORMULA>
C12H16F3N

> <MOLECULAR_WEIGHT>
231.2573

> <EXACT_MASS>
231.123484132

> <IUPAC_NAME>
ethyl({1-[3-(trifluoromethyl)phenyl]propan-2-yl})amine

> <INCHI_IDENTIFIER>
InChI=1S/C12H16F3N/c1-3-16-9(2)7-10-5-4-6-11(8-10)12(13,14)15/h4-6,8-9,16H,3,7H2,1-2H3

> <INCHI_KEY>
InChIKey=DBGIVFWFUFKIQN-UHFFFAOYSA-N

> <SMILES>
CCNC(C)CC1=CC(=CC=C1)C(F)(F)F

> <JCHEM_ACCEPTOR_COUNT>
1

> <JCHEM_DONOR_COUNT>
1

> <JCHEM_BASIC_PKA>
10.22

> <JCHEM_PHYSIOLOGICAL_CHARGE>
1

> <ALOGPS_LOGP>
3.3

> <JCHEM_LOGP>
3.47

> <ALOGPS_LOGS>
-4

> <JCHEM_POLARIZABILITY>
22.51

> <JCHEM_POLAR_SURFACE_AREA>
12.03

> <JCHEM_REFRACTIVITY>
59.2

> <JCHEM_ROTATABLE_BOND_COUNT>
5

> <ALOGPS_SOLUBILITY>
2.15e-02 g/l __ 

$$$$
DB00580
ChemmineR-0317140124XD

 22 24  0  0  0  0            999 V2000
    3.1021   -1.7444    0.0000 S   0  0  0  0  0  0  0  0  0  0  0  0
    2.6896    2.8251    0.0000 O   0  0  0  0  0  0  0  0  0  0  0  0
    3.9271   -1.7444    0.0000 O   0  0  0  0  0  0  0  0  0  0  0  0
    2.2771   -1.7444    0.0000 O   0  0  0  0  0  0  0  0  0  0  0  0
    3.5146    2.8251    0.0000 N   0  0  0  0  0  0  0  0  0  0  0  0
    3.1021   -2.5694    0.0000 N   0  0  0  0  0  0  0  0  0  0  0  0
    3.1021    1.5556    0.0000 C   0  0  0  0  0  0  0  0  0  0  0  0
    3.1021    0.7306    0.0000 C   0  0  0  0  0  0  0  0  0  0  0  0
    3.7695    2.0406    0.0000 C   0  0  0  0  0  0  0  0  0  0  0  0
    2.4347    2.0406    0.0000 C   0  0  0  0  0  0  0  0  0  0  0  0
    3.1021   -0.9194    0.0000 C   0  0  0  0  0  0  0  0  0  0  0  0
    3.8166    0.3181    0.0000 C   0  0  0  0  0  0  0  0  0  0  0  0
    2.3876    0.3181    0.0000 C   0  0  0  0  0  0  0  0  0  0  0  0
    4.5541    1.7856    0.0000 C   0  0  0  0  0  0  0  0  0  0  0  0
    3.8166   -0.5069    0.0000 C   0  0  0  0  0  0  0  0  0  0  0  0
    2.3876   -0.5069    0.0000 C   0  0  0  0  0  0  0  0  0  0  0  0
    1.6500    1.7856    0.0000 C   0  0  0  0  0  0  0  0  0  0  0  0
    5.1672    2.3376    0.0000 C   0  0  0  0  0  0  0  0  0  0  0  0
    4.7257    0.9786    0.0000 C   0  0  0  0  0  0  0  0  0  0  0  0
    5.9518    2.0827    0.0000 C   0  0  0  0  0  0  0  0  0  0  0  0
    5.5103    0.7237    0.0000 C   0  0  0  0  0  0  0  0  0  0  0  0
    6.1234    1.2757    0.0000 C   0  0  0  0  0  0  0  0  0  0  0  0
  1  3  2  0  0  0  0
  1  4  2  0  0  0  0
  1  6  1  0  0  0  0
  1 11  1  0  0  0  0
  2  5  1  0  0  0  0
  2 10  1  0  0  0  0
  5  9  2  0  0  0  0
  7  8  1  0  0  0  0
  7  9  1  0  0  0  0
  7 10  2  0  0  0  0
  8 12  2  0  0  0  0
  8 13  1  0  0  0  0
  9 14  1  0  0  0  0
 10 17  1  0  0  0  0
 11 15  2  0  0  0  0
 11 16  1  0  0  0  0
 12 15  1  0  0  0  0
 13 16  2  0  0  0  0
 14 18  2  0  0  0  0
 14 19  1  0  0  0  0
 18 20  1  0  0  0  0
 19 21  2  0  0  0  0
 20 22  2  0  0  0  0
 21 22  1  0  0  0  0
M  END
> <DRUGBANK_ID>
DB00580

> <DRUG_GROUPS>
withdrawn; investigational

> <GENERIC_NAME>
Valdecoxib

> <BRANDS>
Bextra

> <CHEMICAL_FORMULA>
C16H14N2O3S

> <MOLECULAR_WEIGHT>
314.359

> <EXACT_MASS>
314.072513014

> <IUPAC_NAME>
4-(5-methyl-3-phenyl-1,2-oxazol-4-yl)benzene-1-sulfonamide

> <INCHI_IDENTIFIER>
InChI=1S/C16H14N2O3S/c1-11-15(12-7-9-14(10-8-12)22(17,19)20)16(18-21-11)13-5-3-2-4-6-13/h2-10H,1H3,(H2,17,19,20)

> <INCHI_KEY>
InChIKey=LNPDTQAFDNKSHK-UHFFFAOYSA-N

> <SMILES>
CC1=C(C(=NO1)C1=CC=CC=C1)C1=CC=C(C=C1)S(N)(=O)=O

> <JCHEM_ACCEPTOR_COUNT>
3

> <JCHEM_DONOR_COUNT>
1

> <JCHEM_ACIDIC_PKA>
10.06

> <JCHEM_BASIC_PKA>
0.42

> <JCHEM_PHYSIOLOGICAL_CHARGE>
0

> <ALOGPS_LOGP>
3.32

> <JCHEM_LOGP>
2.82

> <ALOGPS_LOGS>
-4

> <JCHEM_POLARIZABILITY>
31.76

> <JCHEM_POLAR_SURFACE_AREA>
86.19

> <JCHEM_REFRACTIVITY>
84.71

> <JCHEM_ROTATABLE_BOND_COUNT>
3

> <ALOGPS_SOLUBILITY>
3.48e-02 g/l __ 

$$$$
DB00604
ChemmineR-0317140124XD

 32 34  0  0  1  0            999 V2000
    7.7581   -7.2907    0.0000 C    0  0  0  0  0  0  0  0  0  0  0  0
    8.4726   -6.8782    0.0000 C    0  0  0  0  0  0  0  0  0  0  0  0
    7.0436   -6.8782    0.0000 C    0  0  0  0  0  0  0  0  0  0  0  0
    9.1789   -7.2858    0.0000 N    0  0  0  0  0  0  0  0  0  0  0  0
    7.7581   -8.1157    0.0000 C    0  0  0  0  0  0  0  0  0  0  0  0
    6.3292   -7.2907    0.0000 C    0  0  0  0  0  0  0  0  0  0  0  0
    9.1781   -8.1108    0.0000 C    0  0  1  0  0  0  0  0  0  0  0  0
    7.0436   -8.5282    0.0000 C    0  0  0  0  0  0  0  0  0  0  0  0
    9.8922   -8.5240    0.0000 C    0  0  2  0  0  0  0  0  0  0  0  0
    6.3292   -8.1157    0.0000 C    0  0  0  0  0  0  0  0  0  0  0  0
    9.1766   -9.7608    0.0000 N    0  0  0  0  0  0  0  0  0  0  0  0
    9.8914   -9.3490    0.0000 C    0  0  0  0  0  0  0  0  0  0  0  0
    8.4633   -8.5226    0.0000 C    0  0  0  0  0  0  0  0  0  0  0  0
    8.4726   -6.0532    0.0000 O    0  0  0  0  0  0  0  0  0  0  0  0
    8.4625   -9.3476    0.0000 C    0  0  0  0  0  0  0  0  0  0  0  0
    5.6147   -8.5282    0.0000 N    0  0  0  0  0  0  0  0  0  0  0  0
    7.0436   -9.3532    0.0000 Cl   0  0  0  0  0  0  0  0  0  0  0  0
    7.0436   -6.0532    0.0000 O    0  0  0  0  0  0  0  0  0  0  0  0
   13.4634   -9.7650    0.0000 C    0  0  0  0  0  0  0  0  0  0  0  0
   10.6071   -8.1122    0.0000 O    0  0  0  0  0  0  0  0  0  0  0  0
   12.0337  -10.5886    0.0000 C    0  0  0  0  0  0  0  0  0  0  0  0
   14.1783   -9.3532    0.0000 F    0  0  0  0  0  0  0  0  0  0  0  0
   12.7493   -9.3517    0.0000 C    0  0  0  0  0  0  0  0  0  0  0  0
   13.4626  -10.5899    0.0000 C    0  0  0  0  0  0  0  0  0  0  0  0
   12.0345   -9.7636    0.0000 C    0  0  0  0  0  0  0  0  0  0  0  0
   12.7477  -11.0018    0.0000 C    0  0  0  0  0  0  0  0  0  0  0  0
    9.1758  -10.5858    0.0000 C    0  0  0  0  0  0  0  0  0  0  0  0
    9.8899  -10.9990    0.0000 C    0  0  0  0  0  0  0  0  0  0  0  0
   11.3188  -11.0004    0.0000 O    0  0  0  0  0  0  0  0  0  0  0  0
   10.6047  -10.5872    0.0000 C    0  0  0  0  0  0  0  0  0  0  0  0
    6.3292   -5.6407    0.0000 C    0  0  0  0  0  0  0  0  0  0  0  0
   11.3211   -8.5254    0.0000 C    0  0  0  0  0  0  0  0  0  0  0  0
  2  1  1  0  0  0  0
  3  1  1  0  0  0  0
  5  1  2  0  0  0  0
  4  2  1  0  0  0  0
 14  2  2  0  0  0  0
  6  3  2  0  0  0  0
 18  3  1  0  0  0  0
  7  4  1  1  0  0  0
  8  5  1  0  0  0  0
 10  6  1  0  0  0  0
  9  7  1  0  0  0  0
 13  7  1  0  0  0  0
 10  8  2  0  0  0  0
 17  8  1  0  0  0  0
 12  9  1  0  0  0  0
  9 20  1  1  0  0  0
 16 10  1  0  0  0  0
 15 11  1  0  0  0  0
 27 11  1  0  0  0  0
 12 11  1  0  0  0  0
 15 13  1  0  0  0  0
 31 18  1  0  0  0  0
 24 19  1  0  0  0  0
 22 19  1  0  0  0  0
 23 19  2  0  0  0  0
 32 20  1  0  0  0  0
 29 21  1  0  0  0  0
 25 21  2  0  0  0  0
 26 21  1  0  0  0  0
 25 23  1  0  0  0  0
 26 24  2  0  0  0  0
 28 27  1  0  0  0  0
 30 28  1  0  0  0  0
 30 29  1  0  0  0  0
M  END
> <DRUGBANK_ID>
DB00604

> <DRUG_GROUPS>
approved; withdrawn; investigational

> <GENERIC_NAME>
Cisapride

> <BRANDS>
Acenalin; Alimix; Cipril; Enteropride; Kinestase; Prepulsid; Pridesia; Propulsid; Propulsid Quicksolv; Propulsin; Risamal; Syspride

> <CHEMICAL_FORMULA>
C23H29ClFN3O4

> <MOLECULAR_WEIGHT>
465.945

> <EXACT_MASS>
465.183062343

> <IUPAC_NAME>
4-amino-5-chloro-N-[(3S,4R)-1-[3-(4-fluorophenoxy)propyl]-3-methoxypiperidin-4-yl]-2-methoxybenzamide

> <INCHI_IDENTIFIER>
InChI=1S/C23H29ClFN3O4/c1-30-21-13-19(26)18(24)12-17(21)23(29)27-20-8-10-28(14-22(20)31-2)9-3-11-32-16-6-4-15(25)5-7-16/h4-7,12-13,20,22H,3,8-11,14,26H2,1-2H3,(H,27,29)/t20-,22+/m1/s1

> <INCHI_KEY>
InChIKey=DCSUBABJRXZOMT-IRLDBZIGSA-N

> <SMILES>
CO[C@H]1CN(CCCOC2=CC=C(F)C=C2)CC[C@H]1NC(=O)C1=CC(Cl)=C(N)C=C1OC

> <JCHEM_ACCEPTOR_COUNT>
6

> <JCHEM_DONOR_COUNT>
2

> <JCHEM_ACIDIC_PKA>
14.58

> <JCHEM_BASIC_PKA>
8.24

> <JCHEM_PHYSIOLOGICAL_CHARGE>
1

> <ALOGPS_LOGP>
2.95

> <JCHEM_LOGP>
2.49

> <ALOGPS_LOGS>
-4.6

> <JCHEM_POLARIZABILITY>
49.11

> <JCHEM_POLAR_SURFACE_AREA>
86.05

> <JCHEM_REFRACTIVITY>
122.93

> <JCHEM_ROTATABLE_BOND_COUNT>
9

> <ALOGPS_SOLUBILITY>
1.20e-02 g/l __ 

$$$$
DB00637
ChemmineR-0317140124XD

 34 38  0  0  0  0            999 V2000
    1.9121    4.8101    0.0000 F   0  0  0  0  0  0  0  0  0  0  0  0
    9.2913   -4.8101    0.0000 O   0  0  0  0  0  0  0  0  0  0  0  0
    6.4037   -1.2377    0.0000 N   0  0  0  0  0  0  0  0  0  0  0  0
    5.1662    0.9058    0.0000 N   0  0  0  0  0  0  0  0  0  0  0  0
    3.8597    1.5697    0.0000 N   0  0  0  0  0  0  0  0  0  0  0  0
    3.8597    0.2418    0.0000 N   0  0  0  0  0  0  0  0  0  0  0  0
    5.5787    0.1912    0.0000 C   0  0  0  0  0  0  0  0  0  0  0  0
    5.1662   -0.5232    0.0000 C   0  0  0  0  0  0  0  0  0  0  0  0
    6.4037    0.1912    0.0000 C   0  0  0  0  0  0  0  0  0  0  0  0
    5.5787   -1.2377    0.0000 C   0  0  0  0  0  0  0  0  0  0  0  0
    6.8162   -0.5232    0.0000 C   0  0  0  0  0  0  0  0  0  0  0  0
    6.8162   -1.9522    0.0000 C   0  0  0  0  0  0  0  0  0  0  0  0
    7.6412   -1.9522    0.0000 C   0  0  0  0  0  0  0  0  0  0  0  0
    4.3412    0.9058    0.0000 C   0  0  0  0  0  0  0  0  0  0  0  0
    8.0537   -2.6667    0.0000 C   0  0  0  0  0  0  0  0  0  0  0  0
    3.0791    1.3183    0.0000 C   0  0  0  0  0  0  0  0  0  0  0  0
    4.1159    2.3539    0.0000 C   0  0  0  0  0  0  0  0  0  0  0  0
    3.0791    0.4933    0.0000 C   0  0  0  0  0  0  0  0  0  0  0  0
    2.3645    1.7308    0.0000 C   0  0  0  0  0  0  0  0  0  0  0  0
    3.5650    2.9679    0.0000 C   0  0  0  0  0  0  0  0  0  0  0  0
    8.8788   -2.6667    0.0000 C   0  0  0  0  0  0  0  0  0  0  0  0
    7.6412   -3.3812    0.0000 C   0  0  0  0  0  0  0  0  0  0  0  0
    2.3645    0.0808    0.0000 C   0  0  0  0  0  0  0  0  0  0  0  0
    1.6500    1.3183    0.0000 C   0  0  0  0  0  0  0  0  0  0  0  0
    1.6500    0.4933    0.0000 C   0  0  0  0  0  0  0  0  0  0  0  0
    9.2913   -3.3812    0.0000 C   0  0  0  0  0  0  0  0  0  0  0  0
    8.0537   -4.0956    0.0000 C   0  0  0  0  0  0  0  0  0  0  0  0
    2.7577    2.7978    0.0000 C   0  0  0  0  0  0  0  0  0  0  0  0
    3.8213    3.7521    0.0000 C   0  0  0  0  0  0  0  0  0  0  0  0
    8.8788   -4.0956    0.0000 C   0  0  0  0  0  0  0  0  0  0  0  0
    2.2067    3.4119    0.0000 C   0  0  0  0  0  0  0  0  0  0  0  0
    3.2703    4.3662    0.0000 C   0  0  0  0  0  0  0  0  0  0  0  0
    2.4630    4.1960    0.0000 C   0  0  0  0  0  0  0  0  0  0  0  0
   10.1163   -4.8101    0.0000 C   0  0  0  0  0  0  0  0  0  0  0  0
  1 33  1  0  0  0  0
  2 30  1  0  0  0  0
  2 34  1  0  0  0  0
  3 10  1  0  0  0  0
  3 11  1  0  0  0  0
  3 12  1  0  0  0  0
  4  7  1  0  0  0  0
  4 14  1  0  0  0  0
  5 14  1  0  0  0  0
  5 16  1  0  0  0  0
  5 17  1  0  0  0  0
  6 14  2  0  0  0  0
  6 18  1  0  0  0  0
  7  8  1  0  0  0  0
  7  9  1  0  0  0  0
  8 10  1  0  0  0  0
  9 11  1  0  0  0  0
 12 13  1  0  0  0  0
 13 15  1  0  0  0  0
 15 21  2  0  0  0  0
 15 22  1  0  0  0  0
 16 18  1  0  0  0  0
 16 19  2  0  0  0  0
 17 20  1  0  0  0  0
 18 23  2  0  0  0  0
 19 24  1  0  0  0  0
 20 28  2  0  0  0  0
 20 29  1  0  0  0  0
 21 26  1  0  0  0  0
 22 27  2  0  0  0  0
 23 25  1  0  0  0  0
 24 25  2  0  0  0  0
 26 30  2  0  0  0  0
 27 30  1  0  0  0  0
 28 31  1  0  0  0  0
 29 32  2  0  0  0  0
 31 33  2  0  0  0  0
 32 33  1  0  0  0  0
M  END
> <DRUGBANK_ID>
DB00637

> <DRUG_GROUPS>
approved; withdrawn

> <GENERIC_NAME>
Astemizole

> <BRANDS>
Alermizol; Astemisan; Astemisol; Astemison; Hismanal; Histamen; Histaminos; Histazol; Kelp; Laridal; Metodik; Nono-Nastizol A; Paralergin; Retolen; Waruzol

> <CHEMICAL_FORMULA>
C28H31FN4O

> <MOLECULAR_WEIGHT>
458.5703

> <EXACT_MASS>
458.248189839

> <IUPAC_NAME>
1-[(4-fluorophenyl)methyl]-N-{1-[2-(4-methoxyphenyl)ethyl]piperidin-4-yl}-1H-1,3-benzodiazol-2-amine

> <INCHI_IDENTIFIER>
InChI=1S/C28H31FN4O/c1-34-25-12-8-21(9-13-25)14-17-32-18-15-24(16-19-32)30-28-31-26-4-2-3-5-27(26)33(28)20-22-6-10-23(29)11-7-22/h2-13,24H,14-20H2,1H3,(H,30,31)

> <INCHI_KEY>
InChIKey=GXDALQBWZGODGZ-UHFFFAOYSA-N

> <SMILES>
COC1=CC=C(CCN2CCC(CC2)NC2=NC3=CC=CC=C3N2CC2=CC=C(F)C=C2)C=C1

> <JCHEM_ACCEPTOR_COUNT>
4

> <JCHEM_DONOR_COUNT>
1

> <JCHEM_BASIC_PKA>
8.75

> <JCHEM_PHYSIOLOGICAL_CHARGE>
1

> <ALOGPS_LOGP>
5.92

> <JCHEM_LOGP>
5.39

> <ALOGPS_LOGS>
-5.6

> <JCHEM_POLARIZABILITY>
52.08

> <JCHEM_POLAR_SURFACE_AREA>
42.32

> <JCHEM_REFRACTIVITY>
135.64

> <JCHEM_ROTATABLE_BOND_COUNT>
8

> <ALOGPS_SOLUBILITY>
1.20e-03 g/l __ 

$$$$
DB00664
ChemmineR-0317140124XD

 19 20  0  0  0  0            999 V2000
    2.4751    0.1279    0.0000 S   0  0  0  0  0  0  0  0  0  0  0  0
    1.6500    0.1279    0.0000 O   0  0  0  0  0  0  0  0  0  0  0  0
    3.3001    0.1279    0.0000 O   0  0  0  0  0  0  0  0  0  0  0  0
    2.4751    2.6029    0.0000 O   0  0  0  0  0  0  0  0  0  0  0  0
    2.4751    0.9529    0.0000 N   0  0  0  0  0  0  0  0  0  0  0  0
    3.9041    0.9529    0.0000 N   0  0  0  0  0  0  0  0  0  0  0  0
    2.4751   -3.1722    0.0000 N   0  0  0  0  0  0  0  0  0  0  0  0
    3.9041    2.6029    0.0000 N   0  0  0  0  0  0  0  0  0  0  0  0
    2.4751   -0.6971    0.0000 C   0  0  0  0  0  0  0  0  0  0  0  0
    1.7606   -1.1096    0.0000 C   0  0  0  0  0  0  0  0  0  0  0  0
    3.1895   -1.1096    0.0000 C   0  0  0  0  0  0  0  0  0  0  0  0
    3.1895    1.3654    0.0000 C   0  0  0  0  0  0  0  0  0  0  0  0
    2.4751   -2.3472    0.0000 C   0  0  0  0  0  0  0  0  0  0  0  0
    1.7606   -1.9347    0.0000 C   0  0  0  0  0  0  0  0  0  0  0  0
    3.1895   -1.9347    0.0000 C   0  0  0  0  0  0  0  0  0  0  0  0
    3.1895    2.1904    0.0000 C   0  0  0  0  0  0  0  0  0  0  0  0
    4.6185    1.3654    0.0000 C   0  0  0  0  0  0  0  0  0  0  0  0
    4.6185    2.1904    0.0000 C   0  0  0  0  0  0  0  0  0  0  0  0
    2.4751    3.4280    0.0000 C   0  0  0  0  0  0  0  0  0  0  0  0
  1  2  2  0  0  0  0
  1  3  2  0  0  0  0
  1  5  1  0  0  0  0
  1  9  1  0  0  0  0
  4 16  1  0  0  0  0
  4 19  1  0  0  0  0
  5 12  1  0  0  0  0
  6 12  2  0  0  0  0
  6 17  1  0  0  0  0
  7 13  1  0  0  0  0
  8 16  2  0  0  0  0
  8 18  1  0  0  0  0
  9 10  2  0  0  0  0
  9 11  1  0  0  0  0
 10 14  1  0  0  0  0
 11 15  2  0  0  0  0
 12 16  1  0  0  0  0
 13 14  2  0  0  0  0
 13 15  1  0  0  0  0
 17 18  2  0  0  0  0
M  END
> <DRUGBANK_ID>
DB00664

> <DRUG_GROUPS>
approved; withdrawn

> <GENERIC_NAME>
Sulfametopyrazine

> <BRANDS>
Dalysep; Farmitalia 204/122; Kelfizin; Kelfizina; Kelfizine; Kelfizine W; Longum; Polycidal; SMP; SMP2; Solfametopirazina [Dcit]; Sulfalen; Sulfalene; Sulfalene [Usan:Inn]; Sulfaleno [INN-Spanish]; Sulfalenum [INN-Latin]; Sulfamethopyrazine; Sulfamethoxypyrazine; Sulfamethoxysuccinate; Sulfametoxypyridazin; Sulfapyrazinemethoxine; Sulfapyrazinemethoxyine; Sulfapyrazinemethoxyne

> <CHEMICAL_FORMULA>
C11H12N4O3S

> <MOLECULAR_WEIGHT>
280.303

> <EXACT_MASS>
280.06301096

> <IUPAC_NAME>
4-amino-N-(3-methoxypyrazin-2-yl)benzene-1-sulfonamide

> <INCHI_IDENTIFIER>
InChI=1S/C11H12N4O3S/c1-18-11-10(13-6-7-14-11)15-19(16,17)9-4-2-8(12)3-5-9/h2-7H,12H2,1H3,(H,13,15)

> <INCHI_KEY>
InChIKey=KXRZBTAEDBELFD-UHFFFAOYSA-N

> <SMILES>
COC1=NC=CN=C1NS(=O)(=O)C1=CC=C(N)C=C1

> <JCHEM_ACCEPTOR_COUNT>
6

> <JCHEM_DONOR_COUNT>
2

> <JCHEM_ACIDIC_PKA>
5.91

> <JCHEM_BASIC_PKA>
1.98

> <JCHEM_PHYSIOLOGICAL_CHARGE>
-1

> <ALOGPS_LOGP>
0.41

> <JCHEM_LOGP>
0.23

> <ALOGPS_LOGS>
-2.8

> <JCHEM_POLARIZABILITY>
27.12

> <JCHEM_POLAR_SURFACE_AREA>
107.2

> <JCHEM_REFRACTIVITY>
70.37

> <JCHEM_ROTATABLE_BOND_COUNT>
3

> <ALOGPS_SOLUBILITY>
4.06e-01 g/l __ 

$$$$
DB00897
ChemmineR-0317140124XD

 23 26  0  0  0  0            999 V2000
    1.6500   -0.2321    0.0000 Cl   0  0  0  0  0  0  0  0  0  0  0  0
    5.3329    1.8438    0.0000 Cl   0  0  0  0  0  0  0  0  0  0  0  0
    4.8159   -1.3269    0.0000 N    0  0  0  0  0  0  0  0  0  0  0  0
    5.2284    0.4805    0.0000 N    0  0  0  0  0  0  0  0  0  0  0  0
    6.1244   -1.5631    0.0000 N    0  0  0  0  0  0  0  0  0  0  0  0
    5.7352   -2.2849    0.0000 N    0  0  0  0  0  0  0  0  0  0  0  0
    4.0726   -0.9689    0.0000 C    0  0  0  0  0  0  0  0  0  0  0  0
    3.8890   -0.1645    0.0000 C    0  0  0  0  0  0  0  0  0  0  0  0
    5.5592   -0.9689    0.0000 C    0  0  0  0  0  0  0  0  0  0  0  0
    4.4034    0.4805    0.0000 C    0  0  0  0  0  0  0  0  0  0  0  0
    5.7428   -0.1645    0.0000 C    0  0  0  0  0  0  0  0  0  0  0  0
    4.9281   -2.1392    0.0000 C    0  0  0  0  0  0  0  0  0  0  0  0
    3.4517   -1.5630    0.0000 C    0  0  0  0  0  0  0  0  0  0  0  0
    4.0454    1.2238    0.0000 C    0  0  0  0  0  0  0  0  0  0  0  0
    3.0718    0.1014    0.0000 C    0  0  0  0  0  0  0  0  0  0  0  0
    2.6286   -1.3160    0.0000 C    0  0  0  0  0  0  0  0  0  0  0  0
    2.4374   -0.4783    0.0000 C    0  0  0  0  0  0  0  0  0  0  0  0
    4.3328   -2.7104    0.0000 C    0  0  0  0  0  0  0  0  0  0  0  0
    4.5102    1.9054    0.0000 C    0  0  0  0  0  0  0  0  0  0  0  0
    3.2227    1.2854    0.0000 C    0  0  0  0  0  0  0  0  0  0  0  0
    4.1523    2.6488    0.0000 C    0  0  0  0  0  0  0  0  0  0  0  0
    2.8648    2.0288    0.0000 C    0  0  0  0  0  0  0  0  0  0  0  0
    3.3296    2.7104    0.0000 C    0  0  0  0  0  0  0  0  0  0  0  0
  1 17  1  0  0  0  0
  2 19  1  0  0  0  0
  3  7  1  0  0  0  0
  3  9  1  0  0  0  0
  3 12  1  0  0  0  0
  4 10  2  0  0  0  0
  4 11  1  0  0  0  0
  5  6  1  0  0  0  0
  5  9  2  0  0  0  0
  6 12  2  0  0  0  0
  7  8  2  0  0  0  0
  7 13  1  0  0  0  0
  8 10  1  0  0  0  0
  8 15  1  0  0  0  0
  9 11  1  0  0  0  0
 10 14  1  0  0  0  0
 12 18  1  0  0  0  0
 13 16  2  0  0  0  0
 14 19  1  0  0  0  0
 14 20  2  0  0  0  0
 15 17  2  0  0  0  0
 16 17  1  0  0  0  0
 19 21  2  0  0  0  0
 20 22  1  0  0  0  0
 21 23  1  0  0  0  0
 22 23  2  0  0  0  0
M  END
> <DRUGBANK_ID>
DB00897

> <DRUG_GROUPS>
illicit; approved; withdrawn

> <GENERIC_NAME>
Triazolam

> <SYNONYMS>
DEA No. 2887; Triazolamum [INN-Latin]

> <BRANDS>
Alti-Triazolam; Apo-Triazo; Clorazolam; Gen-Triazolam; Halcion; Novidorm; Novo-Triolam; Novodorm; Songar

> <CHEMICAL_FORMULA>
C17H12Cl2N4

> <MOLECULAR_WEIGHT>
343.21

> <EXACT_MASS>
342.043901818

> <IUPAC_NAME>
12-chloro-9-(2-chlorophenyl)-3-methyl-2,4,5,8-tetraazatricyclo[8.4.0.0^{2,6}]tetradeca-1(10),3,5,8,11,13-hexaene

> <INCHI_IDENTIFIER>
InChI=1S/C17H12Cl2N4/c1-10-21-22-16-9-20-17(12-4-2-3-5-14(12)19)13-8-11(18)6-7-15(13)23(10)16/h2-8H,9H2,1H3

> <INCHI_KEY>
InChIKey=JOFWLTCLBGQGBO-UHFFFAOYSA-N

> <SMILES>
CC1=NN=C2CN=C(C3=CC=CC=C3Cl)C3=C(C=CC(Cl)=C3)N12

> <JCHEM_ACCEPTOR_COUNT>
3

> <JCHEM_DONOR_COUNT>
0

> <JCHEM_ACIDIC_PKA>
18.08

> <JCHEM_BASIC_PKA>
4.32

> <JCHEM_PHYSIOLOGICAL_CHARGE>
0

> <ALOGPS_LOGP>
2.94

> <JCHEM_LOGP>
2.89

> <ALOGPS_LOGS>
-4.3

> <JCHEM_POLARIZABILITY>
34.19

> <JCHEM_POLAR_SURFACE_AREA>
43.07

> <JCHEM_REFRACTIVITY>
103.68

> <JCHEM_ROTATABLE_BOND_COUNT>
1

> <ALOGPS_SOLUBILITY>
1.83e-02 g/l __ 

$$$$
DB00901
ChemmineR-0317140124XD

 34 36  0  0  1  0            999 V2000
    8.7949   -1.2375    0.0000 O   0  0  0  0  0  0  0  0  0  0  0  0
    6.6515    0.8250    0.0000 O   0  0  0  0  0  0  0  0  0  0  0  0
    5.2224    0.0000    0.0000 O   0  0  0  0  0  0  0  0  0  0  0  0
    8.0804    0.8250    0.0000 O   0  0  0  0  0  0  0  0  0  0  0  0
    4.5080   -1.2375    0.0000 O   0  0  0  0  0  0  0  0  0  0  0  0
    8.7949   -2.8876    0.0000 N   0  0  0  0  0  0  0  0  0  0  0  0
    8.7949   -3.7126    0.0000 C   0  0  0  0  0  0  0  0  0  0  0  0
    8.0804   -2.4751    0.0000 C   0  0  0  0  0  0  0  0  0  0  0  0
    8.0804   -1.6500    0.0000 C   0  0  0  0  0  0  0  0  0  0  0  0
    8.7949   -4.5376    0.0000 C   0  0  0  0  0  0  0  0  0  0  0  0
    9.6200   -3.7126    0.0000 C   0  0  0  0  0  0  0  0  0  0  0  0
    7.9699   -3.7126    0.0000 C   0  0  0  0  0  0  0  0  0  0  0  0
    7.3659   -1.2375    0.0000 C   0  0  0  0  0  0  0  0  0  0  0  0
    7.3659   -0.4125    0.0000 C   0  0  0  0  0  0  0  0  0  0  0  0
    6.6515   -1.6500    0.0000 C   0  0  0  0  0  0  0  0  0  0  0  0
    6.6515    0.0000    0.0000 C   0  0  0  0  0  0  0  0  0  0  0  0
    5.9370   -1.2375    0.0000 C   0  0  0  0  0  0  0  0  0  0  0  0
    5.9370   -0.4125    0.0000 C   0  0  0  0  0  0  0  0  0  0  0  0
    7.3659    1.2375    0.0000 C   0  0  0  0  0  0  0  0  0  0  0  0
    4.5080   -0.4125    0.0000 C   0  0  0  0  0  0  0  0  0  0  0  0
    7.3659    2.0625    0.0000 C   0  0  0  0  0  0  0  0  0  0  0  0
    3.7935    0.0000    0.0000 C   0  0  0  0  0  0  0  0  0  0  0  0
    8.0804    2.4751    0.0000 C   0  0  0  0  0  0  0  0  0  0  0  0
    6.6515    2.4751    0.0000 C   0  0  0  0  0  0  0  0  0  0  0  0
    3.7935    0.8250    0.0000 C   0  0  0  0  0  0  0  0  0  0  0  0
    3.0791   -0.4125    0.0000 C   0  0  0  0  0  0  0  0  0  0  0  0
    7.3659    3.7126    0.0000 C   0  0  0  0  0  0  0  0  0  0  0  0
    2.3645    0.8250    0.0000 C   0  0  0  0  0  0  0  0  0  0  0  0
    8.0804    3.3001    0.0000 C   0  0  0  0  0  0  0  0  0  0  0  0
    6.6515    3.3001    0.0000 C   0  0  0  0  0  0  0  0  0  0  0  0
    3.0791    1.2375    0.0000 C   0  0  0  0  0  0  0  0  0  0  0  0
    2.3645    0.0000    0.0000 C   0  0  0  0  0  0  0  0  0  0  0  0
    7.3659    4.5376    0.0000 C   0  0  0  0  0  0  0  0  0  0  0  0
    1.6500    1.2375    0.0000 C   0  0  0  0  0  0  0  0  0  0  0  0
  1  9  1  0  0  0  0
  2 16  1  0  0  0  0
  2 19  1  0  0  0  0
  3 18  1  0  0  0  0
  3 20  1  0  0  0  0
  4 19  2  0  0  0  0
  5 20  2  0  0  0  0
  6  7  1  0  0  0  0
  6  8  1  0  0  0  0
  7 10  1  0  0  0  0
  7 11  1  0  0  0  0
  7 12  1  0  0  0  0
  8  9  1  0  0  0  0
  9 13  1  0  0  0  0
 13 14  2  0  0  0  0
 13 15  1  0  0  0  0
 14 16  1  0  0  0  0
 15 17  2  0  0  0  0
 16 18  2  0  0  0  0
 17 18  1  0  0  0  0
 19 21  1  0  0  0  0
 20 22  1  0  0  0  0
 21 23  2  0  0  0  0
 21 24  1  0  0  0  0
 22 25  2  0  0  0  0
 22 26  1  0  0  0  0
 23 29  1  0  0  0  0
 24 30  2  0  0  0  0
 25 31  1  0  0  0  0
 26 32  2  0  0  0  0
 27 29  2  0  0  0  0
 27 30  1  0  0  0  0
 27 33  1  0  0  0  0
 28 31  2  0  0  0  0
 28 32  1  0  0  0  0
 28 34  1  0  0  0  0
M  END
> <DRUGBANK_ID>
DB00901

> <DRUG_GROUPS>
withdrawn

> <GENERIC_NAME>
Bitolterol

> <SYNONYMS>
Bitolterol Mesylate; Bitolterolum [INN-Latin]

> <BRANDS>
Tornalate

> <CHEMICAL_FORMULA>
C28H31NO5

> <MOLECULAR_WEIGHT>
461.5494

> <EXACT_MASS>
461.220223107

> <IUPAC_NAME>
5-[2-(tert-butylamino)-1-hydroxyethyl]-2-[(4-methylphenyl)carbonyloxy]phenyl 4-methylbenzoate

> <INCHI_IDENTIFIER>
InChI=1S/C28H31NO5/c1-18-6-10-20(11-7-18)26(31)33-24-15-14-22(23(30)17-29-28(3,4)5)16-25(24)34-27(32)21-12-8-19(2)9-13-21/h6-16,23,29-30H,17H2,1-5H3

> <INCHI_KEY>
InChIKey=FZGVEKPRDOIXJY-UHFFFAOYSA-N

> <SMILES>
CC1=CC=C(C=C1)C(=O)OC1=C(OC(=O)C2=CC=C(C)C=C2)C=C(C=C1)C(O)CNC(C)(C)C

> <JCHEM_ACCEPTOR_COUNT>
4

> <JCHEM_DONOR_COUNT>
2

> <JCHEM_ACIDIC_PKA>
14

> <JCHEM_BASIC_PKA>
9.59

> <JCHEM_PHYSIOLOGICAL_CHARGE>
1

> <ALOGPS_LOGP>
4.69

> <JCHEM_LOGP>
6.3

> <ALOGPS_LOGS>
-6

> <JCHEM_POLARIZABILITY>
50.91

> <JCHEM_POLAR_SURFACE_AREA>
84.86

> <JCHEM_REFRACTIVITY>
132.76

> <JCHEM_ROTATABLE_BOND_COUNT>
10

> <ALOGPS_SOLUBILITY>
4.80e-04 g/l __ 

$$$$
DB00914
ChemmineR-0317140124XD

 15 15  0  0  0  0            999 V2000
    1.5223    0.1612    0.0000 C   0  0  0  0  0  0  0  0  0  0  0  0
    0.8092    0.5760    0.0000 C   0  0  0  0  0  0  0  0  0  0  0  0
    1.5189   -0.6583    0.0000 C   0  0  0  0  0  0  0  0  0  0  0  0
    2.2355    0.5829    0.0000 C   0  0  0  0  0  0  0  0  0  0  0  0
    0.0961    0.1612    0.0000 C   0  0  0  0  0  0  0  0  0  0  0  0
    2.2355   -1.0663    0.0000 C   0  0  0  0  0  0  0  0  0  0  0  0
    2.9486    0.1680    0.0000 C   0  0  0  0  0  0  0  0  0  0  0  0
   -0.6172    0.5760    0.0000 N   0  0  0  0  0  0  0  0  0  0  0  0
    2.9486   -0.6583    0.0000 C   0  0  0  0  0  0  0  0  0  0  0  0
   -1.3303    0.1612    0.0000 C   0  0  0  0  0  0  0  0  0  0  0  0
   -2.0435    0.5760    0.0000 N   0  0  0  0  0  0  0  0  0  0  0  0
   -1.3303   -0.6617    0.0000 N   0  0  0  0  0  0  0  0  0  0  0  0
   -2.7601    0.1612    0.0000 C   0  0  0  0  0  0  0  0  0  0  0  0
   -3.4732    0.5760    0.0000 N   0  0  0  0  0  0  0  0  0  0  0  0
   -2.7601   -0.6617    0.0000 N   0  0  0  0  0  0  0  0  0  0  0  0
  1  2  1  0  0  0  0
  1  3  2  0  0  0  0
  1  4  1  0  0  0  0
  2  5  1  0  0  0  0
  3  6  1  0  0  0  0
  4  7  2  0  0  0  0
  5  8  1  0  0  0  0
  6  9  2  0  0  0  0
  8 10  1  0  0  0  0
 10 11  1  0  0  0  0
 10 12  2  0  0  0  0
 11 13  1  0  0  0  0
 13 14  1  0  0  0  0
 13 15  2  0  0  0  0
  7  9  1  0  0  0  0
M  END
> <DRUGBANK_ID>
DB00914

> <DRUG_GROUPS>
approved; withdrawn

> <GENERIC_NAME>
Phenformin

> <SYNONYMS>
Beta-Pebg; Beta-Phenethybiguanide; Beta-Phenethylbiguanide; Fenformin; Fenformina [INN-Spanish]; N-Phenethylbiguanide Hydrochloride; PEDG; Phenethylbiguanide Hydrochloride; Phenethyldiguanide; Phenformin HCl; Phenformin Hydrochloride; Phenformine; Phenformine [INN-French]; Phenformine HCl; Phenforminum [INN-Latin]; Phenoformine Hydrochloride; Phenylethylbiguanide

> <BRANDS>
Azucaps; Cronoformin; D Bretard; DB Comb; DB-Retard; DBI; DBI Monohydrochloride; Debeone; Debinyl; Diabis; Dibein; Dibiraf; Dibotin; Dipar; Feguanide; Fenfoduron; Fenormin; Glukopostin; Glyphen; Insoral; Lentobetic; Meltrol; Meltrol-50; Normoglucina; Phenformix; Retardo

> <CHEMICAL_FORMULA>
C10H15N5

> <MOLECULAR_WEIGHT>
205.2596

> <EXACT_MASS>
205.132745505

> <IUPAC_NAME>
1-carbamimidamido-N-(2-phenylethyl)methanimidamide

> <INCHI_IDENTIFIER>
InChI=1S/C10H15N5/c11-9(12)15-10(13)14-7-6-8-4-2-1-3-5-8/h1-5H,6-7H2,(H6,11,12,13,14,15)

> <INCHI_KEY>
InChIKey=ICFJFFQQTFMIBG-UHFFFAOYSA-N

> <SMILES>
NC(=N)NC(=N)NCCC1=CC=CC=C1

> <JCHEM_ACCEPTOR_COUNT>
5

> <JCHEM_DONOR_COUNT>
5

> <JCHEM_BASIC_PKA>
11.97

> <JCHEM_PHYSIOLOGICAL_CHARGE>
2

> <ALOGPS_LOGP>
-0.72

> <JCHEM_LOGP>
0.83

> <ALOGPS_LOGS>
-3

> <JCHEM_POLARIZABILITY>
22.14

> <JCHEM_POLAR_SURFACE_AREA>
97.78

> <JCHEM_REFRACTIVITY>
80.72

> <JCHEM_ROTATABLE_BOND_COUNT>
3

> <ALOGPS_SOLUBILITY>
2.32e-01 g/l __ 

$$$$
DB00926
ChemmineR-0317140124XD

 26 26  0  0  0  0            999 V2000
    3.0791   -4.7439    0.0000 O   0  0  0  0  0  0  0  0  0  0  0  0
    6.6515    3.9188    0.0000 O   0  0  0  0  0  0  0  0  0  0  0  0
    5.2224    3.9188    0.0000 O   0  0  0  0  0  0  0  0  0  0  0  0
    2.3645   -2.6813    0.0000 C   0  0  0  0  0  0  0  0  0  0  0  0
    3.0791   -2.2688    0.0000 C   0  0  0  0  0  0  0  0  0  0  0  0
    2.3645   -3.5063    0.0000 C   0  0  0  0  0  0  0  0  0  0  0  0
    3.7935   -2.6813    0.0000 C   0  0  0  0  0  0  0  0  0  0  0  0
    3.0791   -3.9188    0.0000 C   0  0  0  0  0  0  0  0  0  0  0  0
    3.7935   -3.5063    0.0000 C   0  0  0  0  0  0  0  0  0  0  0  0
    1.6500   -2.2688    0.0000 C   0  0  0  0  0  0  0  0  0  0  0  0
    3.0791   -1.4438    0.0000 C   0  0  0  0  0  0  0  0  0  0  0  0
    1.6500   -3.9188    0.0000 C   0  0  0  0  0  0  0  0  0  0  0  0
    4.5080   -2.2688    0.0000 C   0  0  0  0  0  0  0  0  0  0  0  0
    3.7935   -1.0313    0.0000 C   0  0  0  0  0  0  0  0  0  0  0  0
    3.7935   -0.2063    0.0000 C   0  0  0  0  0  0  0  0  0  0  0  0
    3.7935   -5.1564    0.0000 C   0  0  0  0  0  0  0  0  0  0  0  0
    3.0791    0.2063    0.0000 C   0  0  0  0  0  0  0  0  0  0  0  0
    4.5080    0.2063    0.0000 C   0  0  0  0  0  0  0  0  0  0  0  0
    4.5080    1.0313    0.0000 C   0  0  0  0  0  0  0  0  0  0  0  0
    5.2224    1.4438    0.0000 C   0  0  0  0  0  0  0  0  0  0  0  0
    5.2224    2.2688    0.0000 C   0  0  0  0  0  0  0  0  0  0  0  0
    4.5080    2.6813    0.0000 C   0  0  0  0  0  0  0  0  0  0  0  0
    5.9370    2.6813    0.0000 C   0  0  0  0  0  0  0  0  0  0  0  0
    5.9370    3.5063    0.0000 C   0  0  0  0  0  0  0  0  0  0  0  0
    6.6515    4.7439    0.0000 C   0  0  0  0  0  0  0  0  0  0  0  0
    7.3659    5.1564    0.0000 C   0  0  0  0  0  0  0  0  0  0  0  0
  1  8  1  0  0  0  0
  1 16  1  0  0  0  0
  2 24  1  0  0  0  0
  2 25  1  0  0  0  0
  3 24  2  0  0  0  0
  4  5  2  0  0  0  0
  4  6  1  0  0  0  0
  4 10  1  0  0  0  0
  5  7  1  0  0  0  0
  5 11  1  0  0  0  0
  6  8  2  0  0  0  0
  6 12  1  0  0  0  0
  7  9  2  0  0  0  0
  7 13  1  0  0  0  0
  8  9  1  0  0  0  0
 11 14  2  3  0  0  0
 14 15  1  0  0  0  0
 15 17  1  0  0  0  0
 15 18  2  3  0  0  0
 18 19  1  0  0  0  0
 19 20  2  3  0  0  0
 20 21  1  0  0  0  0
 21 22  1  0  0  0  0
 21 23  2  3  0  0  0
 23 24  1  0  0  0  0
 25 26  1  0  0  0  0
M  END
> <DRUGBANK_ID>
DB00926

> <DRUG_GROUPS>
withdrawn

> <GENERIC_NAME>
Etretinate

> <BRANDS>
Tegison; Tigason

> <CHEMICAL_FORMULA>
C23H30O3

> <MOLECULAR_WEIGHT>
354.4825

> <EXACT_MASS>
354.219494826

> <IUPAC_NAME>
ethyl 9-(4-methoxy-2,3,6-trimethylphenyl)-3,7-dimethylnona-2,4,6,8-tetraenoate

> <INCHI_IDENTIFIER>
InChI=1S/C23H30O3/c1-8-26-23(24)14-17(3)11-9-10-16(2)12-13-21-18(4)15-22(25-7)20(6)19(21)5/h9-15H,8H2,1-7H3/b11-9+,13-12+,16-10+,17-14+

> <INCHI_KEY>
InChIKey=HQMNCQVAMBCHCO-DJRRULDNSA-N

> <SMILES>
CCOC(=O)C=C(C)C=CC=C(C)C=CC1=C(C)C(C)=C(OC)C=C1C

> <JCHEM_ACCEPTOR_COUNT>
2

> <JCHEM_DONOR_COUNT>
0

> <JCHEM_BASIC_PKA>
-4.8

> <JCHEM_PHYSIOLOGICAL_CHARGE>
0

> <ALOGPS_LOGP>
6.32

> <JCHEM_LOGP>
6.32

> <ALOGPS_LOGS>
-5.9

> <JCHEM_POLARIZABILITY>
42.98

> <JCHEM_POLAR_SURFACE_AREA>
35.53

> <JCHEM_REFRACTIVITY>
113.68

> <JCHEM_ROTATABLE_BOND_COUNT>
8

> <ALOGPS_SOLUBILITY>
4.05e-04 g/l __ 

$$$$
DB00969
ChemmineR-0317140124XD

 22 25  0  0  0  0            999 V2000
    4.2709   -1.6687    0.0000 O   0  0  0  0  0  0  0  0  0  0  0  0
    5.3327   -0.7530    0.0000 N   0  0  0  0  0  0  0  0  0  0  0  0
    3.5859    0.9221    0.0000 N   0  0  0  0  0  0  0  0  0  0  0  0
    7.2223   -1.7142    0.0000 N   0  0  0  0  0  0  0  0  0  0  0  0
    7.7481   -0.5454    0.0000 N   0  0  0  0  0  0  0  0  0  0  0  0
    4.2266    0.4565    0.0000 C   0  0  0  0  0  0  0  0  0  0  0  0
    5.0309    0.6405    0.0000 C   0  0  0  0  0  0  0  0  0  0  0  0
    3.9819   -0.2967    0.0000 C   0  0  0  0  0  0  0  0  0  0  0  0
    5.5876    0.0317    0.0000 C   0  0  0  0  0  0  0  0  0  0  0  0
    3.1899   -0.2967    0.0000 C   0  0  0  0  0  0  0  0  0  0  0  0
    2.9450    0.4565    0.0000 C   0  0  0  0  0  0  0  0  0  0  0  0
    4.5243   -0.9183    0.0000 C   0  0  0  0  0  0  0  0  0  0  0  0
    5.8604   -1.3436    0.0000 C   0  0  0  0  0  0  0  0  0  0  0  0
    3.5859    1.7142    0.0000 C   0  0  0  0  0  0  0  0  0  0  0  0
    2.6473   -0.9183    0.0000 C   0  0  0  0  0  0  0  0  0  0  0  0
    2.1408    0.6405    0.0000 C   0  0  0  0  0  0  0  0  0  0  0  0
    6.6357   -1.1819    0.0000 C   0  0  0  0  0  0  0  0  0  0  0  0
    1.8391   -0.7530    0.0000 C   0  0  0  0  0  0  0  0  0  0  0  0
    1.5841    0.0317    0.0000 C   0  0  0  0  0  0  0  0  0  0  0  0
    6.9607   -0.4596    0.0000 C   0  0  0  0  0  0  0  0  0  0  0  0
    6.5673    0.2279    0.0000 C   0  0  0  0  0  0  0  0  0  0  0  0
    7.9098   -1.3208    0.0000 C   0  0  0  0  0  0  0  0  0  0  0  0
  1 12  2  0  0  0  0
  2  9  1  0  0  0  0
  2 12  1  0  0  0  0
  2 13  1  0  0  0  0
  3  6  1  0  0  0  0
  3 11  1  0  0  0  0
  3 14  1  0  0  0  0
  4 17  1  0  0  0  0
  4 22  2  0  0  0  0
  5 20  1  0  0  0  0
  5 22  1  0  0  0  0
  6  7  1  0  0  0  0
  6  8  2  0  0  0  0
  7  9  1  0  0  0  0
  8 10  1  0  0  0  0
  8 12  1  0  0  0  0
 10 11  1  0  0  0  0
 10 15  2  0  0  0  0
 11 16  2  0  0  0  0
 13 17  1  0  0  0  0
 15 18  1  0  0  0  0
 16 19  1  0  0  0  0
 17 20  2  0  0  0  0
 18 19  2  0  0  0  0
 20 21  1  0  0  0  0
M  END
> <DRUGBANK_ID>
DB00969

> <DRUG_GROUPS>
approved; withdrawn

> <GENERIC_NAME>
Alosetron

> <SYNONYMS>
Alosetron HCl

> <BRANDS>
Lotronex

> <CHEMICAL_FORMULA>
C17H18N4O

> <MOLECULAR_WEIGHT>
294.351

> <EXACT_MASS>
294.148061218

> <IUPAC_NAME>
5-methyl-2-[(5-methyl-1H-imidazol-4-yl)methyl]-1H,2H,3H,4H,5H-pyrido[4,3-b]indol-1-one

> <INCHI_IDENTIFIER>
InChI=1S/C17H18N4O/c1-11-13(19-10-18-11)9-21-8-7-15-16(17(21)22)12-5-3-4-6-14(12)20(15)2/h3-6,10H,7-9H2,1-2H3,(H,18,19)

> <INCHI_KEY>
InChIKey=JSWZEAMFRNKZNL-UHFFFAOYSA-N

> <SMILES>
CN1C2=C(C3=CC=CC=C13)C(=O)N(CC1=C(C)NC=N1)CC2

> <JCHEM_ACCEPTOR_COUNT>
2

> <JCHEM_DONOR_COUNT>
1

> <JCHEM_ACIDIC_PKA>
13.32

> <JCHEM_BASIC_PKA>
6.81

> <JCHEM_PHYSIOLOGICAL_CHARGE>
0

> <ALOGPS_LOGP>
1.85

> <JCHEM_LOGP>
1.21

> <ALOGPS_LOGS>
-2.8

> <JCHEM_POLARIZABILITY>
32.52

> <JCHEM_POLAR_SURFACE_AREA>
53.92

> <JCHEM_REFRACTIVITY>
86.41

> <JCHEM_ROTATABLE_BOND_COUNT>
2

> <ALOGPS_SOLUBILITY>
4.38e-01 g/l __ 

$$$$
DB01041
ChemmineR-0317140124XD

 19 21  0  0  1  0            999 V2000
    5.1662   -1.4290    0.0000 O   0  0  0  0  0  0  0  0  0  0  0  0
    4.1159   -1.4482    0.0000 O   0  0  0  0  0  0  0  0  0  0  0  0
    4.1159    1.4482    0.0000 O   0  0  0  0  0  0  0  0  0  0  0  0
    7.6412    0.0000    0.0000 O   0  0  0  0  0  0  0  0  0  0  0  0
    4.3412    0.0000    0.0000 N   0  0  0  0  0  0  0  0  0  0  0  0
    6.4037   -0.7145    0.0000 N   0  0  0  0  0  0  0  0  0  0  0  0
    5.1662    0.0000    0.0000 C   0  0  0  0  0  0  0  0  0  0  0  0
    5.5787    0.7145    0.0000 C   0  0  0  0  0  0  0  0  0  0  0  0
    6.4037    0.7145    0.0000 C   0  0  0  0  0  0  0  0  0  0  0  0
    5.5787   -0.7145    0.0000 C   0  0  0  0  0  0  0  0  0  0  0  0
    3.8597   -0.6639    0.0000 C   0  0  0  0  0  0  0  0  0  0  0  0
    3.8597    0.6639    0.0000 C   0  0  0  0  0  0  0  0  0  0  0  0
    3.0791   -0.4125    0.0000 C   0  0  0  0  0  0  0  0  0  0  0  0
    3.0791    0.4125    0.0000 C   0  0  0  0  0  0  0  0  0  0  0  0
    6.8162    0.0000    0.0000 C   0  0  0  0  0  0  0  0  0  0  0  0
    2.3645   -0.8250    0.0000 C   0  0  0  0  0  0  0  0  0  0  0  0
    2.3645    0.8250    0.0000 C   0  0  0  0  0  0  0  0  0  0  0  0
    1.6500   -0.4125    0.0000 C   0  0  0  0  0  0  0  0  0  0  0  0
    1.6500    0.4125    0.0000 C   0  0  0  0  0  0  0  0  0  0  0  0
  1 10  2  0  0  0  0
  2 11  2  0  0  0  0
  3 12  2  0  0  0  0
  4 15  2  0  0  0  0
  5  7  1  0  0  0  0
  5 11  1  0  0  0  0
  5 12  1  0  0  0  0
  6 10  1  0  0  0  0
  6 15  1  0  0  0  0
  7  8  1  0  0  0  0
  7 10  1  0  0  0  0
  8  9  1  0  0  0  0
  9 15  1  0  0  0  0
 11 13  1  0  0  0  0
 12 14  1  0  0  0  0
 13 14  1  0  0  0  0
 13 16  2  0  0  0  0
 14 17  2  0  0  0  0
 16 18  1  0  0  0  0
 17 19  1  0  0  0  0
 18 19  2  0  0  0  0
M  END
> <DRUGBANK_ID>
DB01041

> <DRUG_GROUPS>
approved; withdrawn; investigational

> <GENERIC_NAME>
Thalidomide

> <SYNONYMS>
alpha-phthalimidoglutarimide; N-Phthalimidoglutamic acid imide; N-Phthaloylglutamimide; N-Phthalylglutamic acid imide; Thalidomine USP26

> <BRANDS>
Algosediv; Asidon 3; Asmadion; Asmaval; Bonbrain; Bonbrrin; Calmore; Calmorex; Contergan; Corronarobetin; Distaval; Distaxal; Distoval; Ectiluran; Enterosediv; Gastrinide; Glupan; Glutanon; Grippex; Hippuzon; Imida-Lab; Imidan; Imidene; Isomin; Kedavon; Kevadon; Neaufatin; Neosedyn; Neosydyn; Nerosedyn; Neufatin; Neurodyn; Neurosedin; Neurosedym; Neurosedyn; Nevrodyn; Nibrol; Noctosediv; Noxodyn; Pangul; Pantosediv; Poly-Giron; Polygripan; Predni-Sediv; Pro-ban M; Profarmil; Psycholiquid; Psychotablets; Quetimid; Quietoplex; Sandormin; Sedalis; Sedalis sedi-lab; Sedimide; Sedin; Sedisperil; Sedoval; Shin-naito S; Shinnibrol; Sleepan; Slipro; Softenil; Softenon; Talargan; Talimol; Talismol; Telagan; Telargan; Telargean; Tensival; Thalin; Thalinette; Thalomid; Theophilcholine; Valgis; Valgraine; Yodomin

> <CHEMICAL_FORMULA>
C13H10N2O4

> <MOLECULAR_WEIGHT>
258.2295

> <EXACT_MASS>
258.064056818

> <IUPAC_NAME>
2-(2,6-dioxopiperidin-3-yl)-2,3-dihydro-1H-isoindole-1,3-dione

> <INCHI_IDENTIFIER>
InChI=1S/C13H10N2O4/c16-10-6-5-9(11(17)14-10)15-12(18)7-3-1-2-4-8(7)13(15)19/h1-4,9H,5-6H2,(H,14,16,17)

> <INCHI_KEY>
InChIKey=UEJJHQNACJXSKW-UHFFFAOYSA-N

> <SMILES>
O=C1N(C2CCC(=O)NC2=O)C(=O)C2=CC=CC=C12

> <JCHEM_ACCEPTOR_COUNT>
4

> <JCHEM_DONOR_COUNT>
1

> <JCHEM_ACIDIC_PKA>
11.59

> <JCHEM_BASIC_PKA>
-6.4

> <JCHEM_PHYSIOLOGICAL_CHARGE>
0

> <ALOGPS_LOGP>
0.42

> <JCHEM_LOGP>
0.016

> <ALOGPS_LOGS>
-2

> <JCHEM_POLARIZABILITY>
24.42

> <JCHEM_POLAR_SURFACE_AREA>
83.55

> <JCHEM_REFRACTIVITY>
64.32

> <JCHEM_ROTATABLE_BOND_COUNT>
1

> <ALOGPS_SOLUBILITY>
2.55e+00 g/l __ 

$$$$
DB01079
ChemmineR-0317140124XD

 22 23  0  0  0  0            999 V2000
    2.0930   -1.0437    0.0000 O   0  0  0  0  0  0  0  0  0  0  0  0
    5.7316   -2.1201    0.0000 N   0  0  0  0  0  0  0  0  0  0  0  0
    8.4097    0.5023    0.0000 N   0  0  0  0  0  0  0  0  0  0  0  0
    6.7952    0.1620    0.0000 N   0  0  0  0  0  0  0  0  0  0  0  0
    7.0515    0.9462    0.0000 N   0  0  0  0  0  0  0  0  0  0  0  0
    8.1151    1.9005    0.0000 N   0  0  0  0  0  0  0  0  0  0  0  0
   10.5753    0.2284    0.0000 C   0  0  0  0  0  0  0  0  0  0  0  0
    9.7680    0.0583    0.0000 C   0  0  0  0  0  0  0  0  0  0  0  0
   11.1263   -0.3856    0.0000 C   0  0  0  0  0  0  0  0  0  0  0  0
    9.2170    0.6724    0.0000 C   0  0  0  0  0  0  0  0  0  0  0  0
    4.9509   -1.0437    0.0000 C   0  0  0  0  0  0  0  0  0  0  0  0
    4.9509   -1.8687    0.0000 C   0  0  0  0  0  0  0  0  0  0  0  0
    5.7316   -0.7923    0.0000 C   0  0  0  0  0  0  0  0  0  0  0  0
    4.2365   -0.6312    0.0000 C   0  0  0  0  0  0  0  0  0  0  0  0
    3.5220   -1.0437    0.0000 C   0  0  0  0  0  0  0  0  0  0  0  0
   11.9336   -0.2154    0.0000 C   0  0  0  0  0  0  0  0  0  0  0  0
    4.2365   -2.2813    0.0000 C   0  0  0  0  0  0  0  0  0  0  0  0
    3.5220   -1.8687    0.0000 C   0  0  0  0  0  0  0  0  0  0  0  0
    6.2131   -1.4562    0.0000 C   0  0  0  0  0  0  0  0  0  0  0  0
    5.9879   -0.0081    0.0000 C   0  0  0  0  0  0  0  0  0  0  0  0
    2.8075   -0.6312    0.0000 C   0  0  0  0  0  0  0  0  0  0  0  0
    7.8588    1.1163    0.0000 C   0  0  0  0  0  0  0  0  0  0  0  0
  1 21  1  0  0  0  0
  2 12  1  0  0  0  0
  2 19  2  0  0  0  0
  3 10  1  0  0  0  0
  3 22  2  0  0  0  0
  4  5  1  0  0  0  0
  4 20  1  0  0  0  0
  5 22  1  0  0  0  0
  6 22  1  0  0  0  0
  7  8  1  0  0  0  0
  7  9  1  0  0  0  0
  8 10  1  0  0  0  0
  9 16  1  0  0  0  0
 11 12  2  0  0  0  0
 11 13  1  0  0  0  0
 11 14  1  0  0  0  0
 12 17  1  0  0  0  0
 13 19  1  0  0  0  0
 13 20  2  0  0  0  0
 14 15  2  0  0  0  0
 15 18  1  0  0  0  0
 15 21  1  0  0  0  0
 17 18  2  0  0  0  0
M  END
> <DRUGBANK_ID>
DB01079

> <DRUG_GROUPS>
withdrawn; investigational

> <GENERIC_NAME>
Tegaserod

> <SYNONYMS>
SDZ HTF 919; Tegaserod maleate

> <BRANDS>
Zelmac; Zelnorm

> <CHEMICAL_FORMULA>
C16H23N5O

> <MOLECULAR_WEIGHT>
301.3867

> <EXACT_MASS>
301.190260383

> <IUPAC_NAME>
(E)-1-({[(3Z)-5-(hydroxymethyl)-3H-indol-3-ylidene]methyl}amino)-2-pentylguanidine

> <INCHI_IDENTIFIER>
InChI=1S/C16H23N5O/c1-2-3-4-7-18-16(17)21-20-10-13-9-19-15-6-5-12(11-22)8-14(13)15/h5-6,8-10,20,22H,2-4,7,11H2,1H3,(H3,17,18,21)/b13-10+

> <INCHI_KEY>
InChIKey=URPUECXJHQGUDU-JLHYYAGUSA-N

> <SMILES>
CCCCC\N=C(/N)NN\C=C1/C=NC2=C1C=C(CO)C=C2

> <JCHEM_ACCEPTOR_COUNT>
6

> <JCHEM_DONOR_COUNT>
4

> <JCHEM_ACIDIC_PKA>
14.91

> <JCHEM_BASIC_PKA>
9.8

> <JCHEM_PHYSIOLOGICAL_CHARGE>
1

> <ALOGPS_LOGP>
1.03

> <JCHEM_LOGP>
1.61

> <ALOGPS_LOGS>
-3.3

> <JCHEM_POLARIZABILITY>
35.41

> <JCHEM_POLAR_SURFACE_AREA>
95.03

> <JCHEM_REFRACTIVITY>
112.16

> <JCHEM_ROTATABLE_BOND_COUNT>
7

> <ALOGPS_SOLUBILITY>
1.50e-01 g/l __ 

$$$$
DB01105
ChemmineR-0317140124XD

 19 20  0  0  1  0            999 V2000
    4.1251   -2.3645    0.0000 Cl   0  0  0  0  0  0  0  0  0  0  0  0
    2.8876    1.6500    0.0000 N    0  0  0  0  0  0  0  0  0  0  0  0
    4.1251    0.9356    0.0000 C    0  0  0  0  0  0  0  0  0  0  0  0
    4.9501    0.9356    0.0000 C    0  0  0  0  0  0  0  0  0  0  0  0
    4.1251    1.7606    0.0000 C    0  0  0  0  0  0  0  0  0  0  0  0
    3.3001    0.9356    0.0000 C    0  0  0  0  0  0  0  0  0  0  0  0
    4.9501    1.7606    0.0000 C    0  0  0  0  0  0  0  0  0  0  0  0
    4.1251    0.1106    0.0000 C    0  0  0  0  0  0  0  0  0  0  0  0
    2.8876    0.2210    0.0000 C    0  0  0  0  0  0  0  0  0  0  0  0
    2.0625    0.2210    0.0000 C    0  0  0  0  0  0  0  0  0  0  0  0
    4.8396   -0.3020    0.0000 C    0  0  0  0  0  0  0  0  0  0  0  0
    3.4106   -0.3020    0.0000 C    0  0  0  0  0  0  0  0  0  0  0  0
    2.0625    1.6500    0.0000 C    0  0  0  0  0  0  0  0  0  0  0  0
    3.3001    2.3645    0.0000 C    0  0  0  0  0  0  0  0  0  0  0  0
    1.6500   -0.4934    0.0000 C    0  0  0  0  0  0  0  0  0  0  0  0
    1.6500    0.9356    0.0000 C    0  0  0  0  0  0  0  0  0  0  0  0
    4.8396   -1.1270    0.0000 C    0  0  0  0  0  0  0  0  0  0  0  0
    3.4106   -1.1270    0.0000 C    0  0  0  0  0  0  0  0  0  0  0  0
    4.1251   -1.5395    0.0000 C    0  0  0  0  0  0  0  0  0  0  0  0
  1 19  1  0  0  0  0
  2  6  1  0  0  0  0
  2 13  1  0  0  0  0
  2 14  1  0  0  0  0
  3  4  1  0  0  0  0
  3  5  1  0  0  0  0
  3  6  1  0  0  0  0
  3  8  1  0  0  0  0
  4  7  1  0  0  0  0
  5  7  1  0  0  0  0
  6  9  1  0  0  0  0
  8 11  2  0  0  0  0
  8 12  1  0  0  0  0
  9 10  1  0  0  0  0
 10 15  1  0  0  0  0
 10 16  1  0  0  0  0
 11 17  1  0  0  0  0
 12 18  2  0  0  0  0
 17 19  2  0  0  0  0
 18 19  1  0  0  0  0
M  END
> <DRUGBANK_ID>
DB01105

> <DRUG_GROUPS>
illicit; approved; withdrawn; investigational

> <GENERIC_NAME>
Sibutramine

> <SYNONYMS>
Sibutramina [Spanish]; Sibutraminum [Latin]

> <BRANDS>
Butramin; Medaria; Meridia; Reductil

> <CHEMICAL_FORMULA>
C17H26ClN

> <MOLECULAR_WEIGHT>
279.848

> <EXACT_MASS>
279.175377544

> <IUPAC_NAME>
{1-[1-(4-chlorophenyl)cyclobutyl]-3-methylbutyl}dimethylamine

> <INCHI_IDENTIFIER>
InChI=1S/C17H26ClN/c1-13(2)12-16(19(3)4)17(10-5-11-17)14-6-8-15(18)9-7-14/h6-9,13,16H,5,10-12H2,1-4H3

> <INCHI_KEY>
InChIKey=UNAANXDKBXWMLN-UHFFFAOYSA-N

> <SMILES>
CC(C)CC(N(C)C)C1(CCC1)C1=CC=C(Cl)C=C1

> <JCHEM_ACCEPTOR_COUNT>
1

> <JCHEM_DONOR_COUNT>
0

> <JCHEM_BASIC_PKA>
9.77

> <JCHEM_PHYSIOLOGICAL_CHARGE>
1

> <ALOGPS_LOGP>
5.05

> <JCHEM_LOGP>
5.2

> <ALOGPS_LOGS>
-5.5

> <JCHEM_POLARIZABILITY>
32.9

> <JCHEM_POLAR_SURFACE_AREA>
3.24

> <JCHEM_REFRACTIVITY>
83.92

> <JCHEM_ROTATABLE_BOND_COUNT>
5

> <ALOGPS_SOLUBILITY>
9.40e-04 g/l __ 

$$$$
DB01107
ChemmineR-0317140124XD

 13 13  0  0  1  0            999 V2000
    1.6500    0.1106    0.0000 O   0  0  0  0  0  0  0  0  0  0  0  0
    4.5080    0.1106    0.0000 O   0  0  0  0  0  0  0  0  0  0  0  0
    3.7935   -1.1270    0.0000 N   0  0  0  0  0  0  0  0  0  0  0  0
    3.0791    0.1106    0.0000 C   0  0  0  0  0  0  0  0  0  0  0  0
    2.3645   -1.1270    0.0000 C   0  0  0  0  0  0  0  0  0  0  0  0
    2.3645   -0.3020    0.0000 C   0  0  0  0  0  0  0  0  0  0  0  0
    2.6665    0.8250    0.0000 C   0  0  0  0  0  0  0  0  0  0  0  0
    3.4916    0.8250    0.0000 C   0  0  0  0  0  0  0  0  0  0  0  0
    3.7935   -0.3020    0.0000 C   0  0  0  0  0  0  0  0  0  0  0  0
    3.0791   -1.5395    0.0000 C   0  0  0  0  0  0  0  0  0  0  0  0
    1.6500   -1.5395    0.0000 C   0  0  0  0  0  0  0  0  0  0  0  0
    1.8415    0.8250    0.0000 C   0  0  0  0  0  0  0  0  0  0  0  0
    3.0791    1.5395    0.0000 C   0  0  0  0  0  0  0  0  0  0  0  0
  1  6  2  0  0  0  0
  2  9  2  0  0  0  0
  3  9  1  0  0  0  0
  3 10  1  0  0  0  0
  4  6  1  0  0  0  0
  4  7  1  0  0  0  0
  4  8  1  0  0  0  0
  4  9  1  0  0  0  0
  5  6  1  0  0  0  0
  5 10  1  0  0  0  0
  5 11  1  0  0  0  0
  7 12  1  0  0  0  0
  8 13  1  0  0  0  0
M  END
> <DRUGBANK_ID>
DB01107

> <DRUG_GROUPS>
illicit; approved; withdrawn

> <GENERIC_NAME>
Methyprylon

> <SYNONYMS>
Dea No. 2575; Methprylon; Methyprolon; Methyprylon [INN]; Methyprylone [INN-French]; Methyprylonum [INN-Latin]; Metiprilon; Metiprilona [INN-Spanish]; Metiprilone

> <BRANDS>
Dimerin; Noctan; Nodular; Noludar

> <CHEMICAL_FORMULA>
C10H17NO2

> <MOLECULAR_WEIGHT>
183.2475

> <EXACT_MASS>
183.125928793

> <IUPAC_NAME>
3,3-diethyl-5-methylpiperidine-2,4-dione

> <INCHI_IDENTIFIER>
InChI=1S/C10H17NO2/c1-4-10(5-2)8(12)7(3)6-11-9(10)13/h7H,4-6H2,1-3H3,(H,11,13)

> <INCHI_KEY>
InChIKey=SIDLZWOQUZRBRU-UHFFFAOYSA-N

> <SMILES>
CCC1(CC)C(=O)NCC(C)C1=O

> <JCHEM_ACCEPTOR_COUNT>
2

> <JCHEM_DONOR_COUNT>
1

> <JCHEM_ACIDIC_PKA>
14.53

> <JCHEM_BASIC_PKA>
-3.1

> <JCHEM_PHYSIOLOGICAL_CHARGE>
0

> <ALOGPS_LOGP>
0.94

> <JCHEM_LOGP>
1.88

> <ALOGPS_LOGS>
-1.2

> <JCHEM_POLARIZABILITY>
19.95

> <JCHEM_POLAR_SURFACE_AREA>
46.17

> <JCHEM_REFRACTIVITY>
50.25

> <JCHEM_ROTATABLE_BOND_COUNT>
2

> <ALOGPS_SOLUBILITY>
1.13e+01 g/l __ 

$$$$
DB01108
ChemmineR-0317140124XD

 28 32  0  0  1  0            999 V2000
    5.1232   -1.6148    0.0000 O   0  0  0  0  0  0  0  0  0  0  0  0
    3.3475    3.0349    0.0000 O   0  0  0  0  0  0  0  0  0  0  0  0
    3.6981   -3.2579    0.0000 O   0  0  0  0  0  0  0  0  0  0  0  0
    1.5934   -2.8376    0.0000 N   0  0  0  0  0  0  0  0  0  0  0  0
    3.7078   -0.8126    0.0000 C   0  0  1  0  0  0  0  0  0  0  0  0
    4.3977   -1.2109    0.0000 C   0  0  1  0  0  0  0  0  0  0  0  0
    3.7078   -0.0158    0.0000 C   0  0  2  0  0  0  0  0  0  0  0  0
    4.3977    0.3825    0.0000 C   0  0  2  0  0  0  0  0  0  0  0  0
    4.4106    1.2122    0.0000 C   0  0  1  0  0  0  0  0  0  0  0  0
    3.6951    1.6327    0.0000 C   0  0  2  0  0  0  0  0  0  0  0  0
    4.4106   -2.0408    0.0000 C   0  0  1  0  0  0  0  0  0  0  0  0
    5.0878   -0.8126    0.0000 C   0  0  0  0  0  0  0  0  0  0  0  0
    5.0878   -0.0158    0.0000 C   0  0  0  0  0  0  0  0  0  0  0  0
    2.9828    0.3880    0.0000 C   0  0  0  0  0  0  0  0  0  0  0  0
    2.9764    1.2177    0.0000 C   0  0  0  0  0  0  0  0  0  0  0  0
    2.9828   -1.2164    0.0000 C   0  0  0  0  0  0  0  0  0  0  0  0
    5.0264    1.7611    0.0000 C   0  0  0  0  0  0  0  0  0  0  0  0
    3.8750    2.4379    0.0000 C   0  0  2  0  0  0  0  0  0  0  0  0
    3.0178   -0.4142    0.0000 C   0  0  0  0  0  0  0  0  0  0  0  0
    4.6962    2.5171    0.0000 C   0  0  0  0  0  0  0  0  0  0  0  0
    3.6951   -2.4612    0.0000 C   0  0  0  0  0  0  0  0  0  0  0  0
    3.0082    2.0364    0.0000 C   0  0  0  0  0  0  0  0  0  0  0  0
    2.9764   -2.0463    0.0000 C   0  0  0  0  0  0  0  0  0  0  0  0
    2.2849   -2.4420    0.0000 C   0  0  0  0  0  0  0  0  0  0  0  0
    3.1584   -0.3388    0.0000 H   0  0  0  0  0  0  0  0  0  0  0  0
    4.9522    0.6969    0.0000 H   0  0  0  0  0  0  0  0  0  0  0  0
    4.9901    0.9470    0.0000 H   0  0  0  0  0  0  0  0  0  0  0  0
    4.7356   -2.5890    0.0000 H   0  0  0  0  0  0  0  0  0  0  0  0
  6  1  1  6  0  0  0
  1 11  1  0  0  0  0
 18  2  1  1  0  0  0
  3 21  1  0  0  0  0
  4 24  3  0  0  0  0
  5  6  1  0  0  0  0
  5  7  1  0  0  0  0
  5 16  1  0  0  0  0
  5 19  1  1  0  0  0
  6 11  1  0  0  0  0
  6 12  1  0  0  0  0
  7  8  1  0  0  0  0
  7 14  1  0  0  0  0
  7 25  1  6  0  0  0
  8  9  1  0  0  0  0
  8 13  1  0  0  0  0
  8 26  1  1  0  0  0
  9 10  1  0  0  0  0
  9 17  1  0  0  0  0
  9 27  1  6  0  0  0
 10 15  1  0  0  0  0
 10 18  1  0  0  0  0
 10 22  1  1  0  0  0
 11 21  1  0  0  0  0
 11 28  1  1  0  0  0
 12 13  1  0  0  0  0
 14 15  1  0  0  0  0
 16 23  1  0  0  0  0
 17 20  1  0  0  0  0
 18 20  1  0  0  0  0
 21 23  2  0  0  0  0
 23 24  1  0  0  0  0
M  END
> <DRUGBANK_ID>
DB01108

> <DRUG_GROUPS>
approved; withdrawn; investigational

> <GENERIC_NAME>
Trilostane

> <BRANDS>
Desopan; Modrastane; Modrenal

> <CHEMICAL_FORMULA>
C20H27NO3

> <MOLECULAR_WEIGHT>
329.4333

> <EXACT_MASS>
329.199093735

> <IUPAC_NAME>
(1S,2R,6R,8S,11S,12S,15S,16S)-5,15-dihydroxy-2,16-dimethyl-7-oxapentacyclo[9.7.0.0^{2,8}.0^{6,8}.0^{12,16}]octadec-4-ene-4-carbonitrile

> <INCHI_IDENTIFIER>
InChI=1S/C20H27NO3/c1-18-7-6-14-12(13(18)3-4-15(18)22)5-8-20-17(24-20)16(23)11(10-21)9-19(14,20)2/h12-15,17,22-23H,3-9H2,1-2H3/t12-,13-,14-,15-,17+,18-,19+,20+/m0/s1

> <INCHI_KEY>
InChIKey=KVJXBPDAXMEYOA-CXANFOAXSA-N

> <SMILES>
[H][C@]12O[C@]11CC[C@@]3([H])[C@]4([H])CC[C@H](O)[C@@]4(C)CC[C@]3([H])[C@@]1(C)CC(C#N)=C2O

> <JCHEM_ACCEPTOR_COUNT>
4

> <JCHEM_DONOR_COUNT>
2

> <JCHEM_ACIDIC_PKA>
5.23

> <JCHEM_BASIC_PKA>
-0.88

> <JCHEM_PHYSIOLOGICAL_CHARGE>
-1

> <ALOGPS_LOGP>
2.41

> <JCHEM_LOGP>
2.3

> <ALOGPS_LOGS>
-3.8

> <JCHEM_POLARIZABILITY>
36.96

> <JCHEM_POLAR_SURFACE_AREA>
76.78

> <JCHEM_REFRACTIVITY>
90.17

> <JCHEM_ROTATABLE_BOND_COUNT>
0

> <ALOGPS_SOLUBILITY>
5.93e-02 g/l __ 

$$$$
DB01149
ChemmineR-0317140124XD

 33 36  0  0  0  0            999 V2000
    1.6500   -5.0560    0.0000 Cl   0  0  0  0  0  0  0  0  0  0  0  0
    3.9811    2.9167    0.0000 O    0  0  0  0  0  0  0  0  0  0  0  0
    6.8929    4.1298    0.0000 O    0  0  0  0  0  0  0  0  0  0  0  0
    3.0791   -0.9309    0.0000 N    0  0  0  0  0  0  0  0  0  0  0  0
    3.0791   -2.5809    0.0000 N    0  0  0  0  0  0  0  0  0  0  0  0
    4.5080    1.5442    0.0000 N    0  0  0  0  0  0  0  0  0  0  0  0
    5.4012    2.5362    0.0000 N    0  0  0  0  0  0  0  0  0  0  0  0
    5.2616    1.2086    0.0000 N    0  0  0  0  0  0  0  0  0  0  0  0
    2.3645   -1.3434    0.0000 C    0  0  0  0  0  0  0  0  0  0  0  0
    3.7935   -1.3434    0.0000 C    0  0  0  0  0  0  0  0  0  0  0  0
    2.3645   -2.1684    0.0000 C    0  0  0  0  0  0  0  0  0  0  0  0
    3.7935   -2.1684    0.0000 C    0  0  0  0  0  0  0  0  0  0  0  0
    3.0791   -0.1058    0.0000 C    0  0  0  0  0  0  0  0  0  0  0  0
    3.7935    0.3067    0.0000 C    0  0  0  0  0  0  0  0  0  0  0  0
    3.7935    1.1317    0.0000 C    0  0  0  0  0  0  0  0  0  0  0  0
    3.0791   -3.4059    0.0000 C    0  0  0  0  0  0  0  0  0  0  0  0
    4.5942    2.3647    0.0000 C    0  0  0  0  0  0  0  0  0  0  0  0
    5.8137    1.8217    0.0000 C    0  0  0  0  0  0  0  0  0  0  0  0
    2.3645   -3.8184    0.0000 C    0  0  0  0  0  0  0  0  0  0  0  0
    3.7935   -3.8184    0.0000 C    0  0  0  0  0  0  0  0  0  0  0  0
    5.7368    3.2899    0.0000 C    0  0  0  0  0  0  0  0  0  0  0  0
    6.6342    1.7355    0.0000 C    0  0  0  0  0  0  0  0  0  0  0  0
    2.3645   -4.6434    0.0000 C    0  0  0  0  0  0  0  0  0  0  0  0
    3.7935   -4.6434    0.0000 C    0  0  0  0  0  0  0  0  0  0  0  0
    6.5572    3.3761    0.0000 C    0  0  0  0  0  0  0  0  0  0  0  0
    3.0791   -5.0560    0.0000 C    0  0  0  0  0  0  0  0  0  0  0  0
    6.9698    0.9818    0.0000 C    0  0  0  0  0  0  0  0  0  0  0  0
    7.7133    4.2161    0.0000 C    0  0  0  0  0  0  0  0  0  0  0  0
    8.0489    4.9697    0.0000 C    0  0  0  0  0  0  0  0  0  0  0  0
    8.1983    3.5486    0.0000 C    0  0  0  0  0  0  0  0  0  0  0  0
    8.8694    5.0560    0.0000 C    0  0  0  0  0  0  0  0  0  0  0  0
    9.0188    3.6349    0.0000 C    0  0  0  0  0  0  0  0  0  0  0  0
    9.3543    4.3885    0.0000 C    0  0  0  0  0  0  0  0  0  0  0  0
  1 23  1  0  0  0  0
  2 17  2  0  0  0  0
  3 25  1  0  0  0  0
  3 28  1  0  0  0  0
  4  9  1  0  0  0  0
  4 10  1  0  0  0  0
  4 13  1  0  0  0  0
  5 11  1  0  0  0  0
  5 12  1  0  0  0  0
  5 16  1  0  0  0  0
  6  8  1  0  0  0  0
  6 15  1  0  0  0  0
  6 17  1  0  0  0  0
  7 17  1  0  0  0  0
  7 18  1  0  0  0  0
  7 21  1  0  0  0  0
  8 18  2  0  0  0  0
  9 11  1  0  0  0  0
 10 12  1  0  0  0  0
 13 14  1  0  0  0  0
 14 15  1  0  0  0  0
 16 19  2  0  0  0  0
 16 20  1  0  0  0  0
 18 22  1  0  0  0  0
 19 23  1  0  0  0  0
 20 24  2  0  0  0  0
 21 25  1  0  0  0  0
 22 27  1  0  0  0  0
 23 26  2  0  0  0  0
 24 26  1  0  0  0  0
 28 29  2  0  0  0  0
 28 30  1  0  0  0  0
 29 31  1  0  0  0  0
 30 32  2  0  0  0  0
 31 33  2  0  0  0  0
 32 33  1  0  0  0  0
M  END
> <DRUGBANK_ID>
DB01149

> <DRUG_GROUPS>
approved; withdrawn

> <GENERIC_NAME>
Nefazodone

> <SYNONYMS>
Nefazodona [Spanish]; Nefazodone Hcl; Nefazodone Hydrochloride; Nefazodonum [Latin]

> <BRANDS>
Dutonin; Serzone

> <CHEMICAL_FORMULA>
C25H32ClN5O2

> <MOLECULAR_WEIGHT>
470.007

> <EXACT_MASS>
469.224453

> <IUPAC_NAME>
1-{3-[4-(3-chlorophenyl)piperazin-1-yl]propyl}-3-ethyl-4-(2-phenoxyethyl)-4,5-dihydro-1H-1,2,4-triazol-5-one

> <INCHI_IDENTIFIER>
InChI=1S/C25H32ClN5O2/c1-2-24-27-31(25(32)30(24)18-19-33-23-10-4-3-5-11-23)13-7-12-28-14-16-29(17-15-28)22-9-6-8-21(26)20-22/h3-6,8-11,20H,2,7,12-19H2,1H3

> <INCHI_KEY>
InChIKey=VRBKIVRKKCLPHA-UHFFFAOYSA-N

> <SMILES>
CCC1=NN(CCCN2CCN(CC2)C2=CC(Cl)=CC=C2)C(=O)N1CCOC1=CC=CC=C1

> <JCHEM_ACCEPTOR_COUNT>
5

> <JCHEM_DONOR_COUNT>
0

> <JCHEM_BASIC_PKA>
7.09

> <JCHEM_PHYSIOLOGICAL_CHARGE>
1

> <ALOGPS_LOGP>
3.71

> <JCHEM_LOGP>
4.65

> <ALOGPS_LOGS>
-3.8

> <JCHEM_POLARIZABILITY>
51.85

> <JCHEM_POLAR_SURFACE_AREA>
51.62

> <JCHEM_REFRACTIVITY>
132.38

> <JCHEM_ROTATABLE_BOND_COUNT>
10

> <ALOGPS_SOLUBILITY>
6.98e-02 g/l __ 

$$$$
DB01178
ChemmineR-0317140124XD

 17 18  0  0  1  0            999 V2000
    1.6500   -1.8563    0.0000 Cl   0  0  0  0  0  0  0  0  0  0  0  0
    5.2224   -0.6188    0.0000 S    0  0  0  0  0  0  0  0  0  0  0  0
    4.8099   -1.3332    0.0000 O    0  0  0  0  0  0  0  0  0  0  0  0
    5.6350   -1.3332    0.0000 O    0  0  0  0  0  0  0  0  0  0  0  0
    5.2224    1.8563    0.0000 O    0  0  0  0  0  0  0  0  0  0  0  0
    4.5080    0.6188    0.0000 N    0  0  0  0  0  0  0  0  0  0  0  0
    4.5080   -0.2063    0.0000 C    0  0  0  0  0  0  0  0  0  0  0  0
    5.9370   -0.2063    0.0000 C    0  0  0  0  0  0  0  0  0  0  0  0
    5.9370    0.6188    0.0000 C    0  0  0  0  0  0  0  0  0  0  0  0
    3.7935   -0.6188    0.0000 C    0  0  0  0  0  0  0  0  0  0  0  0
    5.2224    1.0313    0.0000 C    0  0  0  0  0  0  0  0  0  0  0  0
    3.7935    1.0313    0.0000 C    0  0  0  0  0  0  0  0  0  0  0  0
    3.7935   -1.4438    0.0000 C    0  0  0  0  0  0  0  0  0  0  0  0
    3.0791   -0.2063    0.0000 C    0  0  0  0  0  0  0  0  0  0  0  0
    3.0791   -1.8563    0.0000 C    0  0  0  0  0  0  0  0  0  0  0  0
    2.3645   -0.6188    0.0000 C    0  0  0  0  0  0  0  0  0  0  0  0
    2.3645   -1.4438    0.0000 C    0  0  0  0  0  0  0  0  0  0  0  0
  1 17  1  0  0  0  0
  2  3  2  0  0  0  0
  2  4  2  0  0  0  0
  2  7  1  0  0  0  0
  2  8  1  0  0  0  0
  5 11  2  0  0  0  0
  6  7  1  0  0  0  0
  6 11  1  0  0  0  0
  6 12  1  0  0  0  0
  7 10  1  0  0  0  0
  8  9  1  0  0  0  0
  9 11  1  0  0  0  0
 10 13  2  0  0  0  0
 10 14  1  0  0  0  0
 13 15  1  0  0  0  0
 14 16  2  0  0  0  0
 15 17  2  0  0  0  0
 16 17  1  0  0  0  0
M  END
> <DRUGBANK_ID>
DB01178

> <DRUG_GROUPS>
approved; withdrawn

> <GENERIC_NAME>
Chlormezanone

> <SYNONYMS>
Chlormethazanone; Chlormethazone; Chlormezanon; Chlormezanone [BAN:INN:JAN]; Chlormezanonum [INN-Latin]; Clormetazanone; Clormetazon; Clormezanona [INN-Spanish]; Clormezanone [DCIT]; Dichloromethazanone; Dichloromezanone; dl-Chlormezanone

> <BRANDS>
Alinam; Banabil-sintyal; Banabin; Banabin-Sintyal; Banabin-syntyal; Bisina; Chlomedinon; Clorilax; Lobak; Mio-Sed; Miorilax; Muskel; Muskel-Trancopal; Myolespen; Phenarol; Rexan; Rilansyl; Rilaquil; Rilasol; Rilassol; Rilax; Rillasol; Supotran; Suprotan; Tanafol; Trancopal; Trancote; Tranrilax; Transanate

> <CHEMICAL_FORMULA>
C11H12ClNO3S

> <MOLECULAR_WEIGHT>
273.736

> <EXACT_MASS>
273.022641652

> <IUPAC_NAME>
2-(4-chlorophenyl)-3-methyl-1$l^{6},3-thiazinane-1,1,4-trione

> <INCHI_IDENTIFIER>
InChI=1S/C11H12ClNO3S/c1-13-10(14)6-7-17(15,16)11(13)8-2-4-9(12)5-3-8/h2-5,11H,6-7H2,1H3

> <INCHI_KEY>
InChIKey=WEQAYVWKMWHEJO-UHFFFAOYSA-N

> <SMILES>
CN1C(C2=CC=C(Cl)C=C2)S(=O)(=O)CCC1=O

> <JCHEM_ACCEPTOR_COUNT>
3

> <JCHEM_DONOR_COUNT>
0

> <JCHEM_ACIDIC_PKA>
19.07

> <JCHEM_BASIC_PKA>
-2.5

> <JCHEM_PHYSIOLOGICAL_CHARGE>
0

> <ALOGPS_LOGP>
0.84

> <JCHEM_LOGP>
0.92

> <ALOGPS_LOGS>
-2.2

> <JCHEM_POLARIZABILITY>
25.89

> <JCHEM_POLAR_SURFACE_AREA>
54.45

> <JCHEM_REFRACTIVITY>
64.88

> <JCHEM_ROTATABLE_BOND_COUNT>
1

> <ALOGPS_SOLUBILITY>
1.61e+00 g/l __ 

$$$$
DB01186
ChemmineR-0317140124XD

 24 27  0  0  1  0            999 V2000
    2.3661    2.3349    0.0000 S   0  0  0  0  0  0  0  0  0  0  0  0
    4.5705    1.0944    0.0000 N   0  0  0  0  0  0  0  0  0  0  0  0
    5.5455   -2.3016    0.0000 N   0  0  0  0  0  0  0  0  0  0  0  0
    3.8428   -0.1774    0.0000 C   0  0  2  0  0  0  0  0  0  0  0  0
    4.5572    0.2351    0.0000 C   0  0  1  0  0  0  0  0  0  0  0  0
    3.0920    0.2408    0.0000 C   0  0  0  0  0  0  0  0  0  0  0  0
    3.0853    1.1002    0.0000 C   0  0  2  0  0  0  0  0  0  0  0  0
    3.8296    1.5298    0.0000 C   0  0  0  0  0  0  0  0  0  0  0  0
    5.2717   -0.1774    0.0000 C   0  0  0  0  0  0  0  0  0  0  0  0
    3.8428   -1.0024    0.0000 C   0  0  0  0  0  0  0  0  0  0  0  0
    5.2717   -1.0024    0.0000 C   0  0  0  0  0  0  0  0  0  0  0  0
    4.5572   -1.4149    0.0000 C   0  0  0  0  0  0  0  0  0  0  0  0
    5.2897    1.4986    0.0000 C   0  0  0  0  0  0  0  0  0  0  0  0
    2.3693    1.5099    0.0000 C   0  0  0  0  0  0  0  0  0  0  0  0
    4.5705   -2.2742    0.0000 C   0  0  0  0  0  0  0  0  0  0  0  0
    3.0920   -1.4205    0.0000 C   0  0  0  0  0  0  0  0  0  0  0  0
    5.8797   -1.5528    0.0000 C   0  0  0  0  0  0  0  0  0  0  0  0
    5.2993    2.3236    0.0000 C   0  0  0  0  0  0  0  0  0  0  0  0
    3.8296   -2.7095    0.0000 C   0  0  0  0  0  0  0  0  0  0  0  0
    3.0853   -2.2799    0.0000 C   0  0  0  0  0  0  0  0  0  0  0  0
    6.0184    2.7278    0.0000 C   0  0  0  0  0  0  0  0  0  0  0  0
    1.6500    2.7447    0.0000 C   0  0  0  0  0  0  0  0  0  0  0  0
    3.2738   -0.5118    0.0000 H   0  0  0  0  0  0  0  0  0  0  0  0
    5.1314    0.5608    0.0000 H   0  0  0  0  0  0  0  0  0  0  0  0
  1 14  1  0  0  0  0
  1 22  1  0  0  0  0
  2  5  1  0  0  0  0
  2  8  1  0  0  0  0
  2 13  1  0  0  0  0
  3 15  1  0  0  0  0
  3 17  1  0  0  0  0
  4  5  1  0  0  0  0
  4  6  1  0  0  0  0
  4 10  1  0  0  0  0
  4 23  1  6  0  0  0
  5  9  1  0  0  0  0
  5 24  1  1  0  0  0
  6  7  1  0  0  0  0
  7  8  1  0  0  0  0
  7 14  1  1  0  0  0
  9 11  1  0  0  0  0
 10 12  2  0  0  0  0
 10 16  1  0  0  0  0
 11 12  1  0  0  0  0
 11 17  2  0  0  0  0
 12 15  1  0  0  0  0
 13 18  1  0  0  0  0
 15 19  2  0  0  0  0
 16 20  2  0  0  0  0
 18 21  1  0  0  0  0
 19 20  1  0  0  0  0
M  END
> <DRUGBANK_ID>
DB01186

> <DRUG_GROUPS>
approved; withdrawn

> <GENERIC_NAME>
Pergolide

> <SYNONYMS>
Pergolida [INN-Spanish]; Pergolide Mesylate; Pergolide Methanesulfonate; Pergolidum [INN-Latin]

> <BRANDS>
Permax

> <CHEMICAL_FORMULA>
C19H26N2S

> <MOLECULAR_WEIGHT>
314.488

> <EXACT_MASS>
314.181669532

> <IUPAC_NAME>
(2R,4R,7R)-4-[(methylsulfanyl)methyl]-6-propyl-6,11-diazatetracyclo[7.6.1.0^{2,7}.0^{12,16}]hexadeca-1(16),9,12,14-tetraene

> <INCHI_IDENTIFIER>
InChI=1S/C19H26N2S/c1-3-7-21-11-13(12-22-2)8-16-15-5-4-6-17-19(15)14(10-20-17)9-18(16)21/h4-6,10,13,16,18,20H,3,7-9,11-12H2,1-2H3/t13-,16-,18-/m1/s1

> <INCHI_KEY>
InChIKey=YEHCICAEULNIGD-MZMPZRCHSA-N

> <SMILES>
[H][C@@]12CC3=CNC4=CC=CC(=C34)[C@@]1([H])C[C@@H](CSC)CN2CCC

> <JCHEM_ACCEPTOR_COUNT>
1

> <JCHEM_DONOR_COUNT>
1

> <JCHEM_ACIDIC_PKA>
17.35

> <JCHEM_BASIC_PKA>
9.49

> <JCHEM_PHYSIOLOGICAL_CHARGE>
1

> <ALOGPS_LOGP>
4.17

> <JCHEM_LOGP>
4.23

> <ALOGPS_LOGS>
-5.7

> <JCHEM_POLARIZABILITY>
38.4

> <JCHEM_POLAR_SURFACE_AREA>
19.03

> <JCHEM_REFRACTIVITY>
97.02

> <JCHEM_ROTATABLE_BOND_COUNT>
4

> <ALOGPS_SOLUBILITY>
5.84e-04 g/l __ 

$$$$
DB01191
ChemmineR-0317140124XD

 16 16  0  0  1  0            999 V2000
    4.1890   -6.4628    0.0000 C   0  0  0  0  0  0  0  0  0  0  0  0
    4.9035   -6.0503    0.0000 C   0  0  0  0  0  0  0  0  0  0  0  0
    5.6179   -6.4628    0.0000 C   0  0  0  0  0  0  0  0  0  0  0  0
    6.3324   -6.0503    0.0000 C   0  0  0  0  0  0  0  0  0  0  0  0
    4.1890   -7.2879    0.0000 F   0  0  0  0  0  0  0  0  0  0  0  0
    3.4745   -6.0503    0.0000 F   0  0  0  0  0  0  0  0  0  0  0  0
    7.0469   -6.4628    0.0000 C   0  0  0  0  0  0  0  0  0  0  0  0
    7.7614   -5.2253    0.0000 N   0  0  0  0  0  0  0  0  0  0  0  0
    4.9035   -5.2253    0.0000 C   0  0  0  0  0  0  0  0  0  0  0  0
    7.7614   -6.0503    0.0000 C   0  0  1  0  0  0  0  0  0  0  0  0
    5.6179   -4.8128    0.0000 C   0  0  0  0  0  0  0  0  0  0  0  0
    6.3324   -5.2253    0.0000 C   0  0  0  0  0  0  0  0  0  0  0  0
    8.4759   -6.4628    0.0000 C   0  0  0  0  0  0  0  0  0  0  0  0
    3.4690   -6.8822    0.0000 F   0  0  0  0  0  0  0  0  0  0  0  0
    7.0469   -4.8128    0.0000 C   0  0  0  0  0  0  0  0  0  0  0  0
    7.0469   -3.9878    0.0000 C   0  0  0  0  0  0  0  0  0  0  0  0
  2  1  1  0  0  0  0
  5  1  1  0  0  0  0
  6  1  1  0  0  0  0
  3  2  2  0  0  0  0
  9  2  1  0  0  0  0
  4  3  1  0  0  0  0
  7  4  1  0  0  0  0
 12  4  2  0  0  0  0
 10  7  1  0  0  0  0
 10  8  1  1  0  0  0
 11  9  2  0  0  0  0
 13 10  1  0  0  0  0
 12 11  1  0  0  0  0
  1 14  1  0  0  0  0
  8 15  1  0  0  0  0
 15 16  1  0  0  0  0
M  END
> <DRUGBANK_ID>
DB01191

> <DRUG_GROUPS>
illicit; approved; withdrawn

> <GENERIC_NAME>
Dexfenfluramine

> <SYNONYMS>
(+)-fenfluramine; (S)-fenfluramine; Dextrofenfluramine

> <BRANDS>
Adifax; Redux

> <CHEMICAL_FORMULA>
C12H16F3N

> <MOLECULAR_WEIGHT>
231.2573

> <EXACT_MASS>
231.123484132

> <IUPAC_NAME>
ethyl[(2S)-1-[3-(trifluoromethyl)phenyl]propan-2-yl]amine

> <INCHI_IDENTIFIER>
InChI=1S/C12H16F3N/c1-3-16-9(2)7-10-5-4-6-11(8-10)12(13,14)15/h4-6,8-9,16H,3,7H2,1-2H3/t9-/m0/s1

> <INCHI_KEY>
InChIKey=DBGIVFWFUFKIQN-VIFPVBQESA-N

> <SMILES>
CCN[C@@H](C)CC1=CC=CC(=C1)C(F)(F)F

> <JCHEM_ACCEPTOR_COUNT>
1

> <JCHEM_DONOR_COUNT>
1

> <JCHEM_BASIC_PKA>
10.22

> <JCHEM_PHYSIOLOGICAL_CHARGE>
1

> <ALOGPS_LOGP>
3.3

> <JCHEM_LOGP>
3.47

> <ALOGPS_LOGS>
-4

> <JCHEM_POLARIZABILITY>
22.69

> <JCHEM_POLAR_SURFACE_AREA>
12.03

> <JCHEM_REFRACTIVITY>
59.2

> <JCHEM_ROTATABLE_BOND_COUNT>
5

> <ALOGPS_SOLUBILITY>
2.15e-02 g/l __ 

$$$$
DB01228
ChemmineR-0317140124XD

 26 28  0  0  0  0            999 V2000
    6.4018   -2.4837    0.0000 C   0  0  0  0  0  0  0  0  0  0  0  0
    7.1061   -2.9103    0.0000 N   0  0  0  0  0  0  0  0  0  0  0  0
    7.0807   -3.7185    0.0000 C   0  0  0  0  0  0  0  0  0  0  0  0
    5.6804   -2.8704    0.0000 C   0  0  0  0  0  0  0  0  0  0  0  0
    6.4035   -1.6380    0.0000 O   0  0  0  0  0  0  0  0  0  0  0  0
    7.7936   -4.1502    0.0000 C   0  0  0  0  0  0  0  0  0  0  0  0
    8.4980   -3.7533    0.0000 C   0  0  0  0  0  0  0  0  0  0  0  0
    5.6719   -3.6889    0.0000 C   0  0  0  0  0  0  0  0  0  0  0  0
    4.9675   -2.4386    0.0000 C   0  0  0  0  0  0  0  0  0  0  0  0
    4.2324   -3.6715    0.0000 C   0  0  0  0  0  0  0  0  0  0  0  0
    4.2546   -2.8305    0.0000 C   0  0  0  0  0  0  0  0  0  0  0  0
    4.9504   -4.0948    0.0000 C   0  0  0  0  0  0  0  0  0  0  0  0
    3.4990   -4.0973    0.0000 O   0  0  0  0  0  0  0  0  0  0  0  0
    6.3762   -4.1154    0.0000 C   0  0  0  0  0  0  0  0  0  0  0  0
    7.7681   -4.9585    0.0000 C   0  0  0  0  0  0  0  0  0  0  0  0
    3.4972   -4.9237    0.0000 C   0  0  0  0  0  0  0  0  0  0  0  0
    6.3337   -4.9326    0.0000 C   0  0  0  0  0  0  0  0  0  0  0  0
    7.0551   -5.3695    0.0000 C   0  0  0  0  0  0  0  0  0  0  0  0
    8.5017   -2.9199    0.0000 C   0  0  0  0  0  0  0  0  0  0  0  0
    9.9239   -2.9001    0.0000 N   0  0  0  0  0  0  0  0  0  0  0  0
    9.2094   -2.5032    0.0000 C   0  0  0  0  0  0  0  0  0  0  0  0
    9.9239   -3.7533    0.0000 C   0  0  0  0  0  0  0  0  0  0  0  0
   10.6349   -2.4834    0.0000 C   0  0  0  0  0  0  0  0  0  0  0  0
    9.2094   -1.6697    0.0000 C   0  0  0  0  0  0  0  0  0  0  0  0
   10.6349   -1.6499    0.0000 C   0  0  0  0  0  0  0  0  0  0  0  0
    9.9106   -1.2530    0.0000 C   0  0  0  0  0  0  0  0  0  0  0  0
  2  1  1  0  0  0  0
  3  2  1  0  0  0  0
  4  1  1  0  0  0  0
  5  1  2  0  0  0  0
  6  3  1  0  0  0  0
  7  6  1  0  0  0  0
  8  4  1  0  0  0  0
  9  4  2  0  0  0  0
 10 11  2  0  0  0  0
 11  9  1  0  0  0  0
 12  8  2  0  0  0  0
 13 10  1  0  0  0  0
 14  3  2  0  0  0  0
 15  6  2  0  0  0  0
 16 13  1  0  0  0  0
 17 14  1  0  0  0  0
 18 17  2  0  0  0  0
 12 10  1  0  0  0  0
 18 15  1  0  0  0  0
  7 19  1  0  0  0  0
 20 21  1  0  0  0  0
 21 19  1  0  0  0  0
 22 20  1  0  0  0  0
 23 20  1  0  0  0  0
 24 21  1  0  0  0  0
 25 26  1  0  0  0  0
 26 24  1  0  0  0  0
 25 23  1  0  0  0  0
M  END
> <DRUGBANK_ID>
DB01228

> <DRUG_GROUPS>
approved; withdrawn

> <GENERIC_NAME>
Encainide

> <SYNONYMS>
Encainida [Spanish]; Encainide [French]; Encainidum [Latin]

> <BRANDS>
Enkaid

> <CHEMICAL_FORMULA>
C22H28N2O2

> <MOLECULAR_WEIGHT>
352.4699

> <EXACT_MASS>
352.21507815

> <IUPAC_NAME>
4-methoxy-N-{2-[2-(1-methylpiperidin-2-yl)ethyl]phenyl}benzamide

> <INCHI_IDENTIFIER>
InChI=1S/C22H28N2O2/c1-24-16-6-5-8-19(24)13-10-17-7-3-4-9-21(17)23-22(25)18-11-14-20(26-2)15-12-18/h3-4,7,9,11-12,14-15,19H,5-6,8,10,13,16H2,1-2H3,(H,23,25)

> <INCHI_KEY>
InChIKey=PJWPNDMDCLXCOM-UHFFFAOYSA-N

> <SMILES>
COC1=CC=C(C=C1)C(=O)NC1=CC=CC=C1CCC1CCCCN1C

> <JCHEM_ACCEPTOR_COUNT>
3

> <JCHEM_DONOR_COUNT>
1

> <JCHEM_ACIDIC_PKA>
12.37

> <JCHEM_BASIC_PKA>
9.48

> <JCHEM_PHYSIOLOGICAL_CHARGE>
1

> <ALOGPS_LOGP>
4.29

> <JCHEM_LOGP>
4.49

> <ALOGPS_LOGS>
-4.9

> <JCHEM_POLARIZABILITY>
41.04

> <JCHEM_POLAR_SURFACE_AREA>
41.57

> <JCHEM_REFRACTIVITY>
107.77

> <JCHEM_ROTATABLE_BOND_COUNT>
6

> <ALOGPS_SOLUBILITY>
4.01e-03 g/l __ 

$$$$
DB01230
ChemmineR-0317140124XD

 13 14  0  0  1  0            999 V2000
    2.3888    0.5203    0.0000 O   0  0  0  0  0  0  0  0  0  0  0  0
    4.5083    0.2653    0.0000 O   0  0  0  0  0  0  0  0  0  0  0  0
    3.4687    1.3049    0.0000 N   0  0  0  0  0  0  0  0  0  0  0  0
    2.1587    1.9724    0.0000 N   0  0  0  0  0  0  0  0  0  0  0  0
    3.0562    0.0354    0.0000 C   0  0  0  0  0  0  0  0  0  0  0  0
    3.0562   -0.7896    0.0000 C   0  0  0  0  0  0  0  0  0  0  0  0
    3.7236    0.5203    0.0000 C   0  0  0  0  0  0  0  0  0  0  0  0
    3.7707   -1.2021    0.0000 C   0  0  0  0  0  0  0  0  0  0  0  0
    2.3417   -1.2021    0.0000 C   0  0  0  0  0  0  0  0  0  0  0  0
    2.6437    1.3049    0.0000 C   0  0  0  0  0  0  0  0  0  0  0  0
    3.7707   -2.0272    0.0000 C   0  0  0  0  0  0  0  0  0  0  0  0
    2.3417   -2.0272    0.0000 C   0  0  0  0  0  0  0  0  0  0  0  0
    3.0562   -2.4397    0.0000 C   0  0  0  0  0  0  0  0  0  0  0  0
  1  5  1  0  0  0  0
  1 10  1  0  0  0  0
  2  7  2  0  0  0  0
  3  7  1  0  0  0  0
  3 10  2  0  0  0  0
  4 10  1  0  0  0  0
  5  6  1  0  0  0  0
  5  7  1  0  0  0  0
  6  8  2  0  0  0  0
  6  9  1  0  0  0  0
  8 11  1  0  0  0  0
  9 12  2  0  0  0  0
 11 13  2  0  0  0  0
 12 13  1  0  0  0  0
M  END
> <DRUGBANK_ID>
DB01230

> <DRUG_GROUPS>
illicit; withdrawn

> <GENERIC_NAME>
Pemoline

> <SYNONYMS>
Pheniminooxazolidinone; Phenoxazole; Phenylisohydantoin; Phenylpseudohydantoin

> <BRANDS>
Azoksodon; Azoxodon; Azoxodone; Betanamin; Centramin; Constimol; Cylert; Cylert Chewable; Dantromin; Deltamine; Endolin; Fenoxazol; Fio; Hyton; Hyton asa; Juston-Wirkstoff; Kethamed; Myamin; Nitan; Notair; NPL 1; Okodon; Pemolin; Pemolina; Phenalone; Phenilone; PIO; Pioxol; Pomoline; Pondex; Ronyl; Senior; Sigmadyn; Sistra; Sistral; Stimul; Stimulol; Tradon; Tradone; Volital; Volitol; Yh 1

> <CHEMICAL_FORMULA>
C9H8N2O2

> <MOLECULAR_WEIGHT>
176.172

> <EXACT_MASS>
176.05857751

> <IUPAC_NAME>
2-amino-5-phenyl-4,5-dihydro-1,3-oxazol-4-one

> <INCHI_IDENTIFIER>
InChI=1S/C9H8N2O2/c10-9-11-8(12)7(13-9)6-4-2-1-3-5-6/h1-5,7H,(H2,10,11,12)

> <INCHI_KEY>
InChIKey=NRNCYVBFPDDJNE-UHFFFAOYSA-N

> <SMILES>
NC1=NC(=O)C(O1)C1=CC=CC=C1

> <JCHEM_ACCEPTOR_COUNT>
4

> <JCHEM_DONOR_COUNT>
1

> <JCHEM_ACIDIC_PKA>
14.95

> <JCHEM_BASIC_PKA>
0.99

> <JCHEM_PHYSIOLOGICAL_CHARGE>
0

> <ALOGPS_LOGP>
0.52

> <JCHEM_LOGP>
0.8

> <ALOGPS_LOGS>
-2.3

> <JCHEM_POLARIZABILITY>
17.04

> <JCHEM_POLAR_SURFACE_AREA>
64.68

> <JCHEM_REFRACTIVITY>
45.7

> <JCHEM_ROTATABLE_BOND_COUNT>
1

> <ALOGPS_SOLUBILITY>
9.79e-01 g/l __ 

$$$$
DB01388
ChemmineR-0317140124XD

 36 39  0  0  1  0            999 V2000
   11.1048    3.2403    0.0000 F   0  0  0  0  0  0  0  0  0  0  0  0
    6.6529    1.9829    0.0000 O   0  0  0  0  0  0  0  0  0  0  0  0
    6.6529    3.4119    0.0000 O   0  0  0  0  0  0  0  0  0  0  0  0
    5.0029    3.4119    0.0000 O   0  0  0  0  0  0  0  0  0  0  0  0
    5.8279    0.5539    0.0000 N   0  0  0  0  0  0  0  0  0  0  0  0
    2.5371   -0.9601    0.0000 N   0  0  0  0  0  0  0  0  0  0  0  0
    3.6871   -1.6240    0.0000 N   0  0  0  0  0  0  0  0  0  0  0  0
    7.4780    1.9829    0.0000 C   0  0  1  0  0  0  0  0  0  0  0  0
    8.1924    1.5704    0.0000 C   0  0  1  0  0  0  0  0  0  0  0  0
    7.4780    2.8079    0.0000 C   0  0  0  0  0  0  0  0  0  0  0  0
    8.1924    0.7454    0.0000 C   0  0  0  0  0  0  0  0  0  0  0  0
    7.0655    1.2684    0.0000 C   0  0  0  0  0  0  0  0  0  0  0  0
    8.9069    1.9829    0.0000 C   0  0  0  0  0  0  0  0  0  0  0  0
    8.1924    3.2205    0.0000 C   0  0  0  0  0  0  0  0  0  0  0  0
    8.9069    2.8079    0.0000 C   0  0  0  0  0  0  0  0  0  0  0  0
    6.2404    1.2684    0.0000 C   0  0  0  0  0  0  0  0  0  0  0  0
    7.4780    0.3329    0.0000 C   0  0  0  0  0  0  0  0  0  0  0  0
    8.9069    0.3329    0.0000 C   0  0  0  0  0  0  0  0  0  0  0  0
    9.6444    1.5418    0.0000 C   0  0  0  0  0  0  0  0  0  0  0  0
    9.6444    3.2490    0.0000 C   0  0  0  0  0  0  0  0  0  0  0  0
   10.3919    1.9657    0.0000 C   0  0  0  0  0  0  0  0  0  0  0  0
    6.2404    2.6974    0.0000 C   0  0  0  0  0  0  0  0  0  0  0  0
   10.3919    2.8251    0.0000 C   0  0  0  0  0  0  0  0  0  0  0  0
    5.0029    0.5539    0.0000 C   0  0  0  0  0  0  0  0  0  0  0  0
    6.2404   -0.1605    0.0000 C   0  0  0  0  0  0  0  0  0  0  0  0
    4.5904   -0.1605    0.0000 C   0  0  0  0  0  0  0  0  0  0  0  0
    5.4154    2.6974    0.0000 C   0  0  0  0  0  0  0  0  0  0  0  0
    3.7654   -0.1605    0.0000 C   0  0  0  0  0  0  0  0  0  0  0  0
    3.3529   -0.8750    0.0000 C   0  0  0  0  0  0  0  0  0  0  0  0
    4.1779    3.4119    0.0000 C   0  0  0  0  0  0  0  0  0  0  0  0
    2.3645   -1.7618    0.0000 C   0  0  0  0  0  0  0  0  0  0  0  0
    3.0791   -2.1743    0.0000 C   0  0  0  0  0  0  0  0  0  0  0  0
    1.6500   -2.1743    0.0000 C   0  0  0  0  0  0  0  0  0  0  0  0
    3.0791   -2.9994    0.0000 C   0  0  0  0  0  0  0  0  0  0  0  0
    1.6500   -2.9994    0.0000 C   0  0  0  0  0  0  0  0  0  0  0  0
    2.3645   -3.4119    0.0000 C   0  0  0  0  0  0  0  0  0  0  0  0
  1 23  1  0  0  0  0
  8  2  1  6  0  0  0
  2 22  1  0  0  0  0
  3 22  2  0  0  0  0
  4 27  1  0  0  0  0
  4 30  1  0  0  0  0
  5 16  1  0  0  0  0
  5 24  1  0  0  0  0
  5 25  1  0  0  0  0
  6 29  1  0  0  0  0
  6 31  1  0  0  0  0
  7 29  2  0  0  0  0
  7 32  1  0  0  0  0
  8  9  1  0  0  0  0
  8 10  1  0  0  0  0
  8 12  1  0  0  0  0
  9 11  1  6  0  0  0
  9 13  1  0  0  0  0
 10 14  1  0  0  0  0
 11 17  1  0  0  0  0
 11 18  1  0  0  0  0
 12 16  1  0  0  0  0
 13 15  2  0  0  0  0
 13 19  1  0  0  0  0
 14 15  1  0  0  0  0
 15 20  1  0  0  0  0
 19 21  2  0  0  0  0
 20 23  2  0  0  0  0
 21 23  1  0  0  0  0
 22 27  1  0  0  0  0
 24 26  1  0  0  0  0
 26 28  1  0  0  0  0
 28 29  1  0  0  0  0
 31 32  1  0  0  0  0
 31 33  2  0  0  0  0
 32 34  2  0  0  0  0
 33 35  1  0  0  0  0
 34 36  1  0  0  0  0
 35 36  2  0  0  0  0
M  END
> <DRUGBANK_ID>
DB01388

> <DRUG_GROUPS>
withdrawn

> <GENERIC_NAME>
Mibefradil

> <BRANDS>
Posicor

> <CHEMICAL_FORMULA>
C29H38FN3O3

> <MOLECULAR_WEIGHT>
495.6287

> <EXACT_MASS>
495.289720302

> <IUPAC_NAME>
(1S,2S)-2-(2-{[3-(1H-1,3-benzodiazol-2-yl)propyl](methyl)amino}ethyl)-6-fluoro-1-(propan-2-yl)-1,2,3,4-tetrahydronaphthalen-2-yl 2-methoxyacetate

> <INCHI_IDENTIFIER>
InChI=1S/C29H38FN3O3/c1-20(2)28-23-12-11-22(30)18-21(23)13-14-29(28,36-27(34)19-35-4)15-17-33(3)16-7-10-26-31-24-8-5-6-9-25(24)32-26/h5-6,8-9,11-12,18,20,28H,7,10,13-17,19H2,1-4H3,(H,31,32)/t28-,29-/m0/s1

> <INCHI_KEY>
InChIKey=HBNPJJILLOYFJU-VMPREFPWSA-N

> <SMILES>
COCC(=O)O[C@]1(CCN(C)CCCC2=NC3=CC=CC=C3N2)CCC2=C(C=CC(F)=C2)[C@@H]1C(C)C

> <JCHEM_ACCEPTOR_COUNT>
4

> <JCHEM_DONOR_COUNT>
1

> <JCHEM_ACIDIC_PKA>
12.54

> <JCHEM_BASIC_PKA>
9.82

> <JCHEM_PHYSIOLOGICAL_CHARGE>
1

> <ALOGPS_LOGP>
5.34

> <JCHEM_LOGP>
5.16

> <ALOGPS_LOGS>
-5.7

> <JCHEM_POLAR_SURFACE_AREA>
67.45

> <JCHEM_REFRACTIVITY>
139.73

> <JCHEM_ROTATABLE_BOND_COUNT>
12

> <ALOGPS_SOLUBILITY>
1.04e-03 g/l __ 

$$$$
DB01405
ChemmineR-0317140124XD

 30 33  0  0  1  0            999 V2000
    7.1488    2.0824    0.0000 F   0  0  0  0  0  0  0  0  0  0  0  0
    2.8075   -0.4125    0.0000 F   0  0  0  0  0  0  0  0  0  0  0  0
    4.2364   -2.8875    0.0000 F   0  0  0  0  0  0  0  0  0  0  0  0
    4.2364    2.8875    0.0000 O   0  0  0  0  0  0  0  0  0  0  0  0
    2.0930    1.6500    0.0000 O   0  0  0  0  0  0  0  0  0  0  0  0
    2.8075    2.8875    0.0000 O   0  0  0  0  0  0  0  0  0  0  0  0
    7.1488    0.3926    0.0000 N   0  0  0  0  0  0  0  0  0  0  0  0
    8.5746   -0.4379    0.0000 N   0  0  0  0  0  0  0  0  0  0  0  0
    4.2364    0.4125    0.0000 N   0  0  0  0  0  0  0  0  0  0  0  0
    7.8585   -0.8477    0.0000 C   0  0  0  0  0  0  0  0  0  0  0  0
    7.1456   -0.4324    0.0000 C   0  0  0  0  0  0  0  0  0  0  0  0
    7.8649    0.8023    0.0000 C   0  0  0  0  0  0  0  0  0  0  0  0
    8.5778    0.3871    0.0000 C   0  0  0  0  0  0  0  0  0  0  0  0
    6.4359    0.8078    0.0000 C   0  0  0  0  0  0  0  0  0  0  0  0
    7.8553   -1.6727    0.0000 C   0  0  0  0  0  0  0  0  0  0  0  0
    5.6884    0.3839    0.0000 C   0  0  0  0  0  0  0  0  0  0  0  0
    4.9509    0.8250    0.0000 C   0  0  0  0  0  0  0  0  0  0  0  0
    6.4359    1.6672    0.0000 C   0  0  0  0  0  0  0  0  0  0  0  0
    4.9509    1.6500    0.0000 C   0  0  0  0  0  0  0  0  0  0  0  0
    5.6884    2.0911    0.0000 C   0  0  0  0  0  0  0  0  0  0  0  0
    4.2364    2.0625    0.0000 C   0  0  0  0  0  0  0  0  0  0  0  0
    3.5220    0.8250    0.0000 C   0  0  0  0  0  0  0  0  0  0  0  0
    3.5220    1.6500    0.0000 C   0  0  0  0  0  0  0  0  0  0  0  0
    4.2364   -0.4125    0.0000 C   0  0  0  0  0  0  0  0  0  0  0  0
    3.5220   -0.8250    0.0000 C   0  0  0  0  0  0  0  0  0  0  0  0
    4.9509   -0.8250    0.0000 C   0  0  0  0  0  0  0  0  0  0  0  0
    2.8075    2.0625    0.0000 C   0  0  0  0  0  0  0  0  0  0  0  0
    3.5220   -1.6500    0.0000 C   0  0  0  0  0  0  0  0  0  0  0  0
    4.9509   -1.6500    0.0000 C   0  0  0  0  0  0  0  0  0  0  0  0
    4.2364   -2.0625    0.0000 C   0  0  0  0  0  0  0  0  0  0  0  0
  1 18  1  0  0  0  0
  2 25  1  0  0  0  0
  3 30  1  0  0  0  0
  4 21  2  0  0  0  0
  5 27  1  0  0  0  0
  6 27  2  0  0  0  0
  7 11  1  0  0  0  0
  7 12  1  0  0  0  0
  7 14  1  0  0  0  0
  8 10  1  0  0  0  0
  8 13  1  0  0  0  0
  9 17  1  0  0  0  0
  9 22  1  0  0  0  0
  9 24  1  0  0  0  0
 10 11  1  0  0  0  0
 10 15  1  0  0  0  0
 12 13  1  0  0  0  0
 14 16  1  0  0  0  0
 14 18  2  0  0  0  0
 16 17  2  0  0  0  0
 17 19  1  0  0  0  0
 18 20  1  0  0  0  0
 19 20  2  0  0  0  0
 19 21  1  0  0  0  0
 21 23  1  0  0  0  0
 22 23  2  0  0  0  0
 23 27  1  0  0  0  0
 24 25  2  0  0  0  0
 24 26  1  0  0  0  0
 25 28  1  0  0  0  0
 26 29  2  0  0  0  0
 28 30  2  0  0  0  0
 29 30  1  0  0  0  0
M  END
> <DRUGBANK_ID>
DB01405

> <DRUG_GROUPS>
withdrawn

> <GENERIC_NAME>
Temafloxacin

> <SYNONYMS>
Temafloxacin hydrochloride; Temafloxacina [spanish]; Temafloxacine [french]; Temafloxacinum [latin]

> <BRANDS>
Omniflox

> <CHEMICAL_FORMULA>
C21H18F3N3O3

> <MOLECULAR_WEIGHT>
417.3811

> <EXACT_MASS>
417.130026072

> <IUPAC_NAME>
1-(2,4-difluorophenyl)-6-fluoro-7-(3-methylpiperazin-1-yl)-4-oxo-1,4-dihydroquinoline-3-carboxylic acid

> <INCHI_IDENTIFIER>
InChI=1S/C21H18F3N3O3/c1-11-9-26(5-4-25-11)19-8-18-13(7-16(19)24)20(28)14(21(29)30)10-27(18)17-3-2-12(22)6-15(17)23/h2-3,6-8,10-11,25H,4-5,9H2,1H3,(H,29,30)

> <INCHI_KEY>
InChIKey=QKDHBVNJCZBTMR-UHFFFAOYSA-N

> <SMILES>
CC1CN(CCN1)C1=C(F)C=C2C(=O)C(=CN(C2=C1)C1=C(F)C=C(F)C=C1)C(O)=O

> <JCHEM_ACCEPTOR_COUNT>
6

> <JCHEM_DONOR_COUNT>
2

> <JCHEM_ACIDIC_PKA>
5.6

> <JCHEM_BASIC_PKA>
8.76

> <JCHEM_PHYSIOLOGICAL_CHARGE>
0

> <ALOGPS_LOGP>
0.94

> <JCHEM_LOGP>
1.08

> <ALOGPS_LOGS>
-4.5

> <JCHEM_POLARIZABILITY>
39.7

> <JCHEM_POLAR_SURFACE_AREA>
72.88

> <JCHEM_REFRACTIVITY>
104.53

> <JCHEM_ROTATABLE_BOND_COUNT>
3

> <ALOGPS_SOLUBILITY>
1.44e-02 g/l __ 

$$$$
DB01424
ChemmineR-0317140124XD

 17 18  0  0  1  0            999 V2000
    4.5542    0.1222    0.0000 O   0  0  0  0  0  0  0  0  0  0  0  0
    2.4347    0.3771    0.0000 N   0  0  0  0  0  0  0  0  0  0  0  0
    3.1021   -0.1078    0.0000 N   0  0  0  0  0  0  0  0  0  0  0  0
    3.9996    1.8292    0.0000 N   0  0  0  0  0  0  0  0  0  0  0  0
    2.6896    1.1617    0.0000 C   0  0  0  0  0  0  0  0  0  0  0  0
    3.5146    1.1617    0.0000 C   0  0  0  0  0  0  0  0  0  0  0  0
    3.7696    0.3771    0.0000 C   0  0  0  0  0  0  0  0  0  0  0  0
    3.1021   -0.9328    0.0000 C   0  0  0  0  0  0  0  0  0  0  0  0
    2.2047    1.8292    0.0000 C   0  0  0  0  0  0  0  0  0  0  0  0
    1.6500    0.1222    0.0000 C   0  0  0  0  0  0  0  0  0  0  0  0
    3.6640    2.5829    0.0000 C   0  0  0  0  0  0  0  0  0  0  0  0
    4.8201    1.7429    0.0000 C   0  0  0  0  0  0  0  0  0  0  0  0
    3.8166   -1.3454    0.0000 C   0  0  0  0  0  0  0  0  0  0  0  0
    2.3876   -1.3454    0.0000 C   0  0  0  0  0  0  0  0  0  0  0  0
    3.8166   -2.1704    0.0000 C   0  0  0  0  0  0  0  0  0  0  0  0
    2.3876   -2.1704    0.0000 C   0  0  0  0  0  0  0  0  0  0  0  0
    3.1021   -2.5829    0.0000 C   0  0  0  0  0  0  0  0  0  0  0  0
  1  7  2  0  0  0  0
  2  3  1  0  0  0  0
  2  5  1  0  0  0  0
  2 10  1  0  0  0  0
  3  7  1  0  0  0  0
  3  8  1  0  0  0  0
  4  6  1  0  0  0  0
  4 11  1  0  0  0  0
  4 12  1  0  0  0  0
  5  6  2  0  0  0  0
  5  9  1  0  0  0  0
  6  7  1  0  0  0  0
  8 13  2  0  0  0  0
  8 14  1  0  0  0  0
 13 15  1  0  0  0  0
 14 16  2  0  0  0  0
 15 17  2  0  0  0  0
 16 17  1  0  0  0  0
M  END
> <DRUGBANK_ID>
DB01424

> <DRUG_GROUPS>
approved; withdrawn

> <GENERIC_NAME>
Aminophenazone

> <SYNONYMS>
4-Dimethylaminoantipyrine; Aminopyrine; Dipyrine

> <CHEMICAL_FORMULA>
C13H17N3O

> <MOLECULAR_WEIGHT>
231.2936

> <EXACT_MASS>
231.137162181

> <IUPAC_NAME>
4-(dimethylamino)-1,5-dimethyl-2-phenyl-2,3-dihydro-1H-pyrazol-3-one

> <INCHI_IDENTIFIER>
InChI=1S/C13H17N3O/c1-10-12(14(2)3)13(17)16(15(10)4)11-8-6-5-7-9-11/h5-9H,1-4H3

> <INCHI_KEY>
InChIKey=RMMXTBMQSGEXHJ-UHFFFAOYSA-N

> <SMILES>
CN(C)C1=C(C)N(C)N(C1=O)C1=CC=CC=C1

> <JCHEM_ACCEPTOR_COUNT>
3

> <JCHEM_DONOR_COUNT>
0

> <JCHEM_BASIC_PKA>
3.47

> <JCHEM_PHYSIOLOGICAL_CHARGE>
0

> <ALOGPS_LOGP>
0.94

> <JCHEM_LOGP>
1.15

> <ALOGPS_LOGS>
-1

> <JCHEM_POLARIZABILITY>
25.87

> <JCHEM_POLAR_SURFACE_AREA>
26.79

> <JCHEM_REFRACTIVITY>
70.11

> <JCHEM_ROTATABLE_BOND_COUNT>
2

> <ALOGPS_SOLUBILITY>
2.25e+01 g/l __ 

$$$$
DB01463
ChemmineR-0317140124XD

 16 18  0  0  1  0            999 V2000
    2.6602    0.9070    0.0000 N   0  0  0  0  0  0  0  0  0  0  0  0
    5.2984    0.8040    0.0000 C   0  0  0  0  0  0  0  0  0  0  0  0
    5.5119    1.6008    0.0000 C   0  0  0  0  0  0  0  0  0  0  0  0
    3.8696   -0.0210    0.0000 C   0  0  0  0  0  0  0  0  0  0  0  0
    3.4571    0.6934    0.0000 C   0  0  0  0  0  0  0  0  0  0  0  0
    4.9042    2.4115    0.0000 C   0  0  0  0  0  0  0  0  0  0  0  0
    6.8097    0.1780    0.0000 C   0  0  0  0  0  0  0  0  0  0  0  0
    7.0231    0.9748    0.0000 C   0  0  0  0  0  0  0  0  0  0  0  0
    3.6561   -0.8177    0.0000 C   0  0  0  0  0  0  0  0  0  0  0  0
    2.4467    1.7039    0.0000 C   0  0  0  0  0  0  0  0  0  0  0  0
    2.8592   -1.0312    0.0000 C   0  0  0  0  0  0  0  0  0  0  0  0
    4.2394   -1.4011    0.0000 C   0  0  0  0  0  0  0  0  0  0  0  0
    1.6499    1.9173    0.0000 C   0  0  0  0  0  0  0  0  0  0  0  0
    2.6457   -1.8282    0.0000 C   0  0  0  0  0  0  0  0  0  0  0  0
    4.0258   -2.1979    0.0000 C   0  0  0  0  0  0  0  0  0  0  0  0
    3.2289   -2.4115    0.0000 C   0  0  0  0  0  0  0  0  0  0  0  0
  1  5  1  0  0  0  0
  1 10  1  0  0  0  0
  2  4  1  0  0  0  0
  2  6  1  0  0  0  0
  2  7  1  0  0  0  0
  3  5  1  0  0  0  0
  3  6  1  0  0  0  0
  3  8  1  0  0  0  0
  4  5  1  0  0  0  0
  4  9  1  0  0  0  0
  7  8  1  0  0  0  0
  9 11  2  0  0  0  0
  9 12  1  0  0  0  0
 10 13  1  0  0  0  0
 11 14  1  0  0  0  0
 12 15  2  0  0  0  0
 14 16  2  0  0  0  0
 15 16  1  0  0  0  0
M  END
> <DRUGBANK_ID>
DB01463

> <DRUG_GROUPS>
illicit; approved; withdrawn

> <GENERIC_NAME>
Fencamfamine

> <SYNONYMS>
2-Aethylamino-3-phenyl-nor-camphan; 2-Ethylamino-3-phenyl-norcamphane hydrochloride; 2-Ethylamino-3-phenylnorcamphane hydrochloride; Fencamfamin; Fencamfamin hydrochloride; Fencamfamina [dcit]; Fencamfamine [inn-french]; Fencamfamine hydrochloride; Fencamfaminum [inn-latin]; Fencanfamina [inn-spanish]

> <BRANDS>
Euvitol; Glucoenergan; Reactivan

> <CHEMICAL_FORMULA>
C15H21N

> <MOLECULAR_WEIGHT>
215.3339

> <EXACT_MASS>
215.167399677

> <IUPAC_NAME>
N-ethyl-3-phenylbicyclo[2.2.1]heptan-2-amine

> <INCHI_IDENTIFIER>
InChI=1S/C15H21N/c1-2-16-15-13-9-8-12(10-13)14(15)11-6-4-3-5-7-11/h3-7,12-16H,2,8-10H2,1H3

> <INCHI_KEY>
InChIKey=IKFBPFGUINLYQI-UHFFFAOYSA-N

> <SMILES>
CCNC1C2CCC(C2)C1C1=CC=CC=C1

> <JCHEM_ACCEPTOR_COUNT>
1

> <JCHEM_DONOR_COUNT>
1

> <JCHEM_BASIC_PKA>
10.56

> <JCHEM_PHYSIOLOGICAL_CHARGE>
1

> <ALOGPS_LOGP>
3.46

> <JCHEM_LOGP>
3.21

> <ALOGPS_LOGS>
-4.9

> <JCHEM_POLARIZABILITY>
26.13

> <JCHEM_POLAR_SURFACE_AREA>
12.03

> <JCHEM_REFRACTIVITY>
67.64

> <JCHEM_ROTATABLE_BOND_COUNT>
3

> <ALOGPS_SOLUBILITY>
2.95e-03 g/l __ 

$$$$
DB01556
ChemmineR-0317140124XD

 12 12  0  0  0  0            999 V2000
    2.3645   -2.3183    0.0000 Cl   0  0  0  0  0  0  0  0  0  0  0  0
    3.7935    1.8068    0.0000 N    0  0  0  0  0  0  0  0  0  0  0  0
    3.0791    1.3943    0.0000 C    0  0  0  0  0  0  0  0  0  0  0  0
    2.3645    0.9818    0.0000 C    0  0  0  0  0  0  0  0  0  0  0  0
    2.6665    2.1087    0.0000 C    0  0  0  0  0  0  0  0  0  0  0  0
    3.4916    0.6798    0.0000 C    0  0  0  0  0  0  0  0  0  0  0  0
    2.3645    0.1568    0.0000 C    0  0  0  0  0  0  0  0  0  0  0  0
    3.0791   -0.2558    0.0000 C    0  0  0  0  0  0  0  0  0  0  0  0
    1.6500   -0.2558    0.0000 C    0  0  0  0  0  0  0  0  0  0  0  0
    3.0791   -1.0808    0.0000 C    0  0  0  0  0  0  0  0  0  0  0  0
    1.6500   -1.0808    0.0000 C    0  0  0  0  0  0  0  0  0  0  0  0
    2.3645   -1.4933    0.0000 C    0  0  0  0  0  0  0  0  0  0  0  0
  1 12  1  0  0  0  0
  2  3  1  0  0  0  0
  3  4  1  0  0  0  0
  3  5  1  0  0  0  0
  3  6  1  0  0  0  0
  4  7  1  0  0  0  0
  7  8  2  0  0  0  0
  7  9  1  0  0  0  0
  8 10  1  0  0  0  0
  9 11  2  0  0  0  0
 10 12  2  0  0  0  0
 11 12  1  0  0  0  0
M  END
> <DRUGBANK_ID>
DB01556

> <DRUG_GROUPS>
illicit; experimental; withdrawn

> <GENERIC_NAME>
Chlorphentermine

> <SYNONYMS>
1-(4-Chlorophenyl)-2-methyl-2-propanamine; 1-(p-Chlorophenyl)-2-methyl-2-aminopropane; 1-(p-Chlorophenyl)-2-methyl-2-aminopropane hydrochloride; 4-Chloro-alpha,alpha-dimethylbenzeneethanamine; 4-Chloro-alpha,alpha-dimethylphenethylamine; alpha,alpha-dimethyl-p-chlorophenethylamine; Beta-(p-chlorophenyl)-alpha,alpha-dimethylethylamine; Chlorophentermine; Chlorophentermine hydrochloride; Chlorpentermine; Chlorphenteramine; Chlorphentermine hydrochloride; Chlorphenterminum [inn-latin]; Chlorphenterminum hydrochloride; Clorfentermina [inn-spanish]; P-chloro-alpha,alpha-dimethylphenethylamine; P-chlorphentermine hydrochloride

> <BRANDS>
Apsedon; Clomina; Desopimon; Dezopimon; Effox; Lucofen; Lucofene; Nilgana

> <CHEMICAL_FORMULA>
C10H14ClN

> <MOLECULAR_WEIGHT>
183.678

> <EXACT_MASS>
183.08147716

> <IUPAC_NAME>
1-(4-chlorophenyl)-2-methylpropan-2-amine

> <INCHI_IDENTIFIER>
InChI=1S/C10H14ClN/c1-10(2,12)7-8-3-5-9(11)6-4-8/h3-6H,7,12H2,1-2H3

> <INCHI_KEY>
InChIKey=ZCKAMNXUHHNZLN-UHFFFAOYSA-N

> <SMILES>
CC(C)(N)CC1=CC=C(Cl)C=C1

> <JCHEM_ACCEPTOR_COUNT>
1

> <JCHEM_DONOR_COUNT>
1

> <JCHEM_BASIC_PKA>
10.24

> <JCHEM_PHYSIOLOGICAL_CHARGE>
1

> <ALOGPS_LOGP>
2.81

> <JCHEM_LOGP>
2.69

> <ALOGPS_LOGS>
-3.2

> <JCHEM_POLARIZABILITY>
20.19

> <JCHEM_POLAR_SURFACE_AREA>
26.02

> <JCHEM_REFRACTIVITY>
53.15

> <JCHEM_ROTATABLE_BOND_COUNT>
2

> <ALOGPS_SOLUBILITY>
1.05e-01 g/l __ 

$$$$
DB02383
ChemmineR-0317140124XD

 24 25  0  0  0  0            999 V2000
   -2.2716   -0.0276    0.0000 C   0  0  0  0  0  0  0  0  0  0  0  0
   -2.9861   -0.4401    0.0000 F   0  0  0  0  0  0  0  0  0  0  0  0
   -1.8591   -0.7421    0.0000 F   0  0  0  0  0  0  0  0  0  0  0  0
   -2.6841    0.6868    0.0000 F   0  0  0  0  0  0  0  0  0  0  0  0
   -1.5571    0.3849    0.0000 C   0  0  0  0  0  0  0  0  0  0  0  0
   -1.5571    1.2099    0.0000 C   0  0  0  0  0  0  0  0  0  0  0  0
   -2.2716    1.6224    0.0000 O   0  0  0  0  0  0  0  0  0  0  0  0
   -2.9861    1.2099    0.0000 C   0  0  0  0  0  0  0  0  0  0  0  0
   -0.8426    1.6224    0.0000 C   0  0  0  0  0  0  0  0  0  0  0  0
   -0.1282    1.2099    0.0000 C   0  0  0  0  0  0  0  0  0  0  0  0
   -0.1282    0.3849    0.0000 C   0  0  0  0  0  0  0  0  0  0  0  0
    0.5863   -0.0276    0.0000 C   0  0  0  0  0  0  0  0  0  0  0  0
    0.5863   -0.8526    0.0000 C   0  0  0  0  0  0  0  0  0  0  0  0
   -0.1282   -1.2651    0.0000 C   0  0  0  0  0  0  0  0  0  0  0  0
   -0.8426   -0.8526    0.0000 C   0  0  0  0  0  0  0  0  0  0  0  0
   -0.8426   -0.0276    0.0000 C   0  0  0  0  0  0  0  0  0  0  0  0
    1.3008    0.3849    0.0000 C   0  0  0  0  0  0  0  0  0  0  0  0
    1.3008    1.2099    0.0000 S   0  0  0  0  0  0  0  0  0  0  0  0
    2.0152   -0.0276    0.0000 N   0  0  0  0  0  0  0  0  0  0  0  0
    2.0152   -0.8526    0.0000 C   0  0  0  0  0  0  0  0  0  0  0  0
    2.7297    0.3849    0.0000 C   0  0  0  0  0  0  0  0  0  0  0  0
    3.4442   -0.0276    0.0000 C   0  0  0  0  0  0  0  0  0  0  0  0
    4.1587    0.3849    0.0000 O   0  0  0  0  0  0  0  0  0  0  0  0
    3.4442   -0.8526    0.0000 O   0  0  0  0  0  0  0  0  0  0  0  0
  1  2  1  0  0  0  0
  1  3  1  0  0  0  0
  1  4  1  0  0  0  0
  1  5  1  0  0  0  0
  5  6  2  0  0  0  0
  5 16  1  0  0  0  0
  6  7  1  0  0  0  0
  6  9  1  0  0  0  0
  7  8  1  0  0  0  0
  9 10  2  0  0  0  0
 10 11  1  0  0  0  0
 11 12  2  0  0  0  0
 11 16  1  0  0  0  0
 12 13  1  0  0  0  0
 12 17  1  0  0  0  0
 13 14  2  0  0  0  0
 14 15  1  0  0  0  0
 15 16  2  0  0  0  0
 17 18  2  0  0  0  0
 17 19  1  0  0  0  0
 19 20  1  0  0  0  0
 19 21  1  0  0  0  0
 21 22  1  0  0  0  0
 22 23  2  0  0  0  0
 22 24  1  0  0  0  0
M  END
> <DRUGBANK_ID>
DB02383

> <DRUG_GROUPS>
withdrawn

> <GENERIC_NAME>
Tolrestat

> <BRANDS>
Alredase

> <CHEMICAL_FORMULA>
C16H14F3NO3S

> <MOLECULAR_WEIGHT>
357.347

> <EXACT_MASS>
357.064648624

> <IUPAC_NAME>
2-{1-[6-methoxy-5-(trifluoromethyl)naphthalen-1-yl]-N-methylmethanethioamido}acetic acid

> <INCHI_IDENTIFIER>
InChI=1S/C16H14F3NO3S/c1-20(8-13(21)22)15(24)11-5-3-4-10-9(11)6-7-12(23-2)14(10)16(17,18)19/h3-7H,8H2,1-2H3,(H,21,22)

> <INCHI_KEY>
InChIKey=LUBHDINQXIHVLS-UHFFFAOYSA-N

> <SMILES>
COC1=C(C2=CC=CC(C(=S)N(C)CC(O)=O)=C2C=C1)C(F)(F)F

> <JCHEM_ACCEPTOR_COUNT>
3

> <JCHEM_DONOR_COUNT>
1

> <JCHEM_ACIDIC_PKA>
3.95

> <JCHEM_BASIC_PKA>
-3

> <JCHEM_PHYSIOLOGICAL_CHARGE>
-1

> <ALOGPS_LOGP>
3.25

> <JCHEM_LOGP>
3.35

> <ALOGPS_LOGS>
-4.7

> <JCHEM_POLARIZABILITY>
32.08

> <JCHEM_POLAR_SURFACE_AREA>
49.77

> <JCHEM_REFRACTIVITY>
87.89

> <JCHEM_ROTATABLE_BOND_COUNT>
5

> <ALOGPS_SOLUBILITY>
7.60e-03 g/l __ 

$$$$
DB03585
ChemmineR-0317140124XD

 24 26  0  0  1  0            999 V2000
    1.6500   -0.0480    0.0000 O   0  0  0  0  0  0  0  0  0  0  0  0
    3.9995    1.6590    0.0000 O   0  0  0  0  0  0  0  0  0  0  0  0
    3.1021   -3.5780    0.0000 O   0  0  0  0  0  0  0  0  0  0  0  0
    3.1021   -0.2780    0.0000 N   0  0  0  0  0  0  0  0  0  0  0  0
    3.7695    0.2069    0.0000 N   0  0  0  0  0  0  0  0  0  0  0  0
    2.6896    0.9916    0.0000 C   0  0  0  0  0  0  0  0  0  0  0  0
    2.2047    1.6590    0.0000 C   0  0  0  0  0  0  0  0  0  0  0  0
    2.4347    0.2069    0.0000 C   0  0  0  0  0  0  0  0  0  0  0  0
    3.5146    0.9916    0.0000 C   0  0  0  0  0  0  0  0  0  0  0  0
    2.5402    2.4126    0.0000 C   0  0  0  0  0  0  0  0  0  0  0  0
    2.0553    3.0801    0.0000 C   0  0  0  0  0  0  0  0  0  0  0  0
    3.1021   -1.1030    0.0000 C   0  0  0  0  0  0  0  0  0  0  0  0
    4.5541   -0.0480    0.0000 C   0  0  0  0  0  0  0  0  0  0  0  0
    2.3909    3.8338    0.0000 C   0  0  0  0  0  0  0  0  0  0  0  0
    3.8166   -1.5155    0.0000 C   0  0  0  0  0  0  0  0  0  0  0  0
    2.3876   -1.5155    0.0000 C   0  0  0  0  0  0  0  0  0  0  0  0
    5.1672    0.5040    0.0000 C   0  0  0  0  0  0  0  0  0  0  0  0
    4.7257   -0.8550    0.0000 C   0  0  0  0  0  0  0  0  0  0  0  0
    3.8166   -2.3405    0.0000 C   0  0  0  0  0  0  0  0  0  0  0  0
    2.3876   -2.3405    0.0000 C   0  0  0  0  0  0  0  0  0  0  0  0
    5.9518    0.2491    0.0000 C   0  0  0  0  0  0  0  0  0  0  0  0
    5.5103   -1.1100    0.0000 C   0  0  0  0  0  0  0  0  0  0  0  0
    3.1021   -2.7530    0.0000 C   0  0  0  0  0  0  0  0  0  0  0  0
    6.1234   -0.5579    0.0000 C   0  0  0  0  0  0  0  0  0  0  0  0
  1  8  2  0  0  0  0
  2  9  2  0  0  0  0
  3 23  1  0  0  0  0
  4  5  1  0  0  0  0
  4  8  1  0  0  0  0
  4 12  1  0  0  0  0
  5  9  1  0  0  0  0
  5 13  1  0  0  0  0
  6  7  1  0  0  0  0
  6  8  1  0  0  0  0
  6  9  1  0  0  0  0
  7 10  1  0  0  0  0
 10 11  1  0  0  0  0
 11 14  1  0  0  0  0
 12 15  2  0  0  0  0
 12 16  1  0  0  0  0
 13 17  2  0  0  0  0
 13 18  1  0  0  0  0
 15 19  1  0  0  0  0
 16 20  2  0  0  0  0
 17 21  1  0  0  0  0
 18 22  2  0  0  0  0
 19 23  2  0  0  0  0
 20 23  1  0  0  0  0
 21 24  2  0  0  0  0
 22 24  1  0  0  0  0
M  END
> <DRUGBANK_ID>
DB03585

> <DRUG_GROUPS>
experimental; withdrawn

> <GENERIC_NAME>
Oxyphenbutazone

> <SYNONYMS>
1-(p-Hydroxyphenyl)-2-phenyl-4-butyl-3,5-pyrazolidinedione; 1-p-Hydroxyphenyl-2-phenyl-3,5-dioxo-4-N-butylpyrazolidine; 1-Phenyl-2-(p-hydroxyphenyl)-3,5-dioxo-4-butylpyrazolidine; 3,5-Pyrazolidinedione, 4-butyl-1-(4-hydroxyphenyl)-2-phenyl; 4-Butyl-1-(4-hydroxyphenyl)-2-phenyl-3,5-pyrazolidinedione; 4-Butyl-1-(p-hydroxyphenyl)-2-phenyl-3,5-pyrazolidinedione; 4-Butyl-2-(4-hydroxyphenyl)-1-phenyl-3,5-dioxopyrazolidine; 4-Butyl-2-(p-hydroxyphenyl)-1-phenyl-3,5-pyrazolidinedione; Hydroxyphenylbutazon; OPB; Ossifenbutazone [dcit]; Oxifenbutazona [inn-spanish]; Oxifenylbutazon; Oxiphenbutazone; Oxiphenbutazonum; Oxyphenbutazonum [inn-latin]; Oxyphenobutazone; Oxyphenylbutazone; P-hydroxyphenylbutazone; P-oxyphenylbutazone; Usaf Ge-14

> <BRANDS>
Aradinum; Artroflog; Butaflogin; Butanora; Butanova; Butapirone; Butazonic; Butilene; Californit; Cinophen-n; Crovaril; Deflogin; Etrozolidina; Flamaril; Flanaril; Flegmostam; Flogal; Floghene; Flogistin; Flogitolo; Flogodin; Flogoril; Flogostop; Flopirina; Frabel; Genal; Idrobutazina; Infamil; Infammil; Ipabutona; Iridil; Isobutazina; Isobutil; Metabolite I; Mysite; Neo-farmadol; Neofen; Offitril; Optimal; Oxalid; Oxazolidin; Oxazolidin-geigy; Oxazolioin; Oxi-fenibutol; Oxibutol; Oxybuton; Oxyphentamin; Pirabutina; Piraflogin; Poliflogil; Portoril; Rapostan; Remazin; Reumox; Reunabutal; Rumapax; Tandacote; Tandalgesic; Tandearil; Tanderal; Tanderil; Telidac; Telidal; Tendearil; Valioil; Visubutina

> <CHEMICAL_FORMULA>
C19H20N2O3

> <MOLECULAR_WEIGHT>
324.3737

> <EXACT_MASS>
324.147392516

> <IUPAC_NAME>
4-butyl-1-(4-hydroxyphenyl)-2-phenylpyrazolidine-3,5-dione

> <INCHI_IDENTIFIER>
InChI=1S/C19H20N2O3/c1-2-3-9-17-18(23)20(14-7-5-4-6-8-14)21(19(17)24)15-10-12-16(22)13-11-15/h4-8,10-13,17,22H,2-3,9H2,1H3

> <INCHI_KEY>
InChIKey=HFHZKZSRXITVMK-UHFFFAOYSA-N

> <SMILES>
CCCCC1C(=O)N(N(C1=O)C1=CC=C(O)C=C1)C1=CC=CC=C1

> <JCHEM_ACCEPTOR_COUNT>
3

> <JCHEM_DONOR_COUNT>
1

> <JCHEM_ACIDIC_PKA>
4.87

> <JCHEM_BASIC_PKA>
-6

> <JCHEM_PHYSIOLOGICAL_CHARGE>
-1

> <ALOGPS_LOGP>
2.79

> <JCHEM_LOGP>
3.83

> <ALOGPS_LOGS>
-3.1

> <JCHEM_POLARIZABILITY>
35.14

> <JCHEM_POLAR_SURFACE_AREA>
60.85

> <JCHEM_REFRACTIVITY>
90.74

> <JCHEM_ROTATABLE_BOND_COUNT>
5

> <ALOGPS_SOLUBILITY>
2.56e-01 g/l __ 

$$$$
DB03783
ChemmineR-0317140124XD

 13 13  0  0  0  0            999 V2000
    2.3644   -1.6500    0.0000 O   0  0  0  0  0  0  0  0  0  0  0  0
    3.7934    1.6500    0.0000 O   0  0  0  0  0  0  0  0  0  0  0  0
    2.3644    1.6500    0.0000 N   0  0  0  0  0  0  0  0  0  0  0  0
    2.3644    0.8250    0.0000 C   0  0  0  0  0  0  0  0  0  0  0  0
    2.3644   -0.8250    0.0000 C   0  0  0  0  0  0  0  0  0  0  0  0
    3.0790    0.4125    0.0000 C   0  0  0  0  0  0  0  0  0  0  0  0
    1.6500    0.4125    0.0000 C   0  0  0  0  0  0  0  0  0  0  0  0
    3.0790   -0.4125    0.0000 C   0  0  0  0  0  0  0  0  0  0  0  0
    1.6500   -0.4125    0.0000 C   0  0  0  0  0  0  0  0  0  0  0  0
    1.6500   -2.0625    0.0000 C   0  0  0  0  0  0  0  0  0  0  0  0
    1.6500   -2.8875    0.0000 C   0  0  0  0  0  0  0  0  0  0  0  0
    3.0790    2.0625    0.0000 C   0  0  0  0  0  0  0  0  0  0  0  0
    3.0790    2.8875    0.0000 C   0  0  0  0  0  0  0  0  0  0  0  0
  1  5  1  0  0  0  0
  1 10  1  0  0  0  0
  2 12  2  0  0  0  0
  3  4  1  0  0  0  0
  3 12  1  0  0  0  0
  4  6  2  0  0  0  0
  4  7  1  0  0  0  0
  5  8  2  0  0  0  0
  5  9  1  0  0  0  0
  6  8  1  0  0  0  0
  7  9  2  0  0  0  0
 10 11  1  0  0  0  0
 12 13  1  0  0  0  0
M  END
> <DRUGBANK_ID>
DB03783

> <DRUG_GROUPS>
withdrawn

> <GENERIC_NAME>
Phenacetin

> <SYNONYMS>
Acetophenetidin; Acetophenetidine; Acetophenetin; Acetphenetidin

> <BRANDS>
Achrocidin; Codempiral; Commotional; Contradol; Contradouleur

> <CHEMICAL_FORMULA>
C10H13NO2

> <MOLECULAR_WEIGHT>
179.2157

> <EXACT_MASS>
179.094628665

> <IUPAC_NAME>
N-(4-ethoxyphenyl)acetamide

> <INCHI_IDENTIFIER>
InChI=1S/C10H13NO2/c1-3-13-10-6-4-9(5-7-10)11-8(2)12/h4-7H,3H2,1-2H3,(H,11,12)

> <INCHI_KEY>
InChIKey=CPJSUEIXXCENMM-UHFFFAOYSA-N

> <SMILES>
CCOC1=CC=C(NC(C)=O)C=C1

> <JCHEM_ACCEPTOR_COUNT>
2

> <JCHEM_DONOR_COUNT>
1

> <JCHEM_ACIDIC_PKA>
14.98

> <JCHEM_BASIC_PKA>
-4.2

> <JCHEM_PHYSIOLOGICAL_CHARGE>
0

> <ALOGPS_LOGP>
1.62

> <JCHEM_LOGP>
1.41

> <ALOGPS_LOGS>
-2

> <JCHEM_POLARIZABILITY>
19.82

> <JCHEM_POLAR_SURFACE_AREA>
38.33

> <JCHEM_REFRACTIVITY>
52.13

> <JCHEM_ROTATABLE_BOND_COUNT>
3

> <ALOGPS_SOLUBILITY>
1.78e+00 g/l __ 

$$$$
DB04743
ChemmineR-0317140124XD
Created with ChemWriter - http://chemwriter.com
 21 22  0  0  0  0            999 V2000
    0.0000    0.8250    0.0000 O   0  0  0  0  0  0  0  0  0  0  0  0
    0.7145    0.4125    0.0000 C   0  0  0  0  0  0  0  0  0  0  0  0
   -0.7145   -0.4125    0.0000 C   0  0  0  0  0  0  0  0  0  0  0  0
   -0.7145    0.4125    0.0000 C   0  0  0  0  0  0  0  0  0  0  0  0
    0.7145   -0.4125    0.0000 C   0  0  0  0  0  0  0  0  0  0  0  0
   -1.4289    0.8250    0.0000 C   0  0  0  0  0  0  0  0  0  0  0  0
   -2.1434    0.4125    0.0000 C   0  0  0  0  0  0  0  0  0  0  0  0
   -2.1434   -0.4125    0.0000 C   0  0  0  0  0  0  0  0  0  0  0  0
   -1.4289   -0.8250    0.0000 C   0  0  0  0  0  0  0  0  0  0  0  0
    2.1434   -0.4125    0.0000 C   0  0  0  0  0  0  0  0  0  0  0  0
    2.1434    0.4125    0.0000 C   0  0  0  0  0  0  0  0  0  0  0  0
    1.4290   -0.8250    0.0000 C   0  0  0  0  0  0  0  0  0  0  0  0
    2.1433   -2.0625    0.0000 O   0  5  0  0  0  0  0  0  0  0  0  0
    1.4290   -1.6500    0.0000 N   0  3  0  0  0  0  0  0  0  0  0  0
    0.7144   -2.0625    0.0000 O   0  0  0  0  0  0  0  0  0  0  0  0
    1.4290    0.8250    0.0000 C   0  0  0  0  0  0  0  0  0  0  0  0
    1.4290    1.6500    0.0000 N   0  0  0  0  0  0  0  0  0  0  0  0
    2.1434    2.0625    0.0000 S   0  0  0  0  0  0  0  0  0  0  0  0
    2.1434    1.2375    0.0000 O   0  0  0  0  0  0  0  0  0  0  0  0
    2.1434    2.8875    0.0000 O   0  0  0  0  0  0  0  0  0  0  0  0
    2.8579    1.6499    0.0000 C   0  0  0  0  0  0  0  0  0  0  0  0
  1  2  1  0  0  0  0
 16  2  2  0  0  0  0
  9  3  2  0  0  0  0
  3  4  1  0  0  0  0
  4  1  1  0  0  0  0
  6  4  2  0  0  0  0
  2  5  1  0  0  0  0
  5 12  2  0  0  0  0
  6  7  1  0  0  0  0
  7  8  2  0  0  0  0
  8  9  1  0  0  0  0
 12 10  1  0  0  0  0
 10 11  2  0  0  0  0
 16 11  1  0  0  0  0
 12 14  1  0  0  0  0
 14 13  1  0  0  0  0
 14 15  2  0  0  0  0
 16 17  1  0  0  0  0
 17 18  1  0  0  0  0
 18 20  2  0  0  0  0
 18 21  1  0  0  0  0
 18 19  2  0  0  0  0
M  END
> <DRUGBANK_ID>
DB04743

> <DRUG_GROUPS>
withdrawn

> <GENERIC_NAME>
Nimesulide

> <CHEMICAL_FORMULA>
C13H12N2O5S

> <MOLECULAR_WEIGHT>
308.31

> <EXACT_MASS>
308.046692194

> <IUPAC_NAME>
N-(4-nitro-2-phenoxyphenyl)methanesulfonamide

> <INCHI_IDENTIFIER>
InChI=1S/C13H12N2O5S/c1-21(18,19)14-12-8-7-10(15(16)17)9-13(12)20-11-5-3-2-4-6-11/h2-9,14H,1H3

> <INCHI_KEY>
InChIKey=HYWYRSMBCFDLJT-UHFFFAOYSA-N

> <SMILES>
CS(=O)(=O)NC1=C(OC2=CC=CC=C2)C=C(C=C1)[N+]([O-])=O

> <JCHEM_ACCEPTOR_COUNT>
4

> <JCHEM_DONOR_COUNT>
1

> <JCHEM_ACIDIC_PKA>
6.86

> <JCHEM_BASIC_PKA>
-8.9

> <JCHEM_PHYSIOLOGICAL_CHARGE>
-1

> <ALOGPS_LOGP>
2.56

> <JCHEM_LOGP>
1.79

> <ALOGPS_LOGS>
-4.2

> <JCHEM_POLARIZABILITY>
28.87

> <JCHEM_POLAR_SURFACE_AREA>
101.22

> <JCHEM_REFRACTIVITY>
76.31

> <JCHEM_ROTATABLE_BOND_COUNT>
4

> <ALOGPS_SOLUBILITY>
1.82e-02 g/l __ 

$$$$
DB04812
ChemmineR-0317140124XD

 21 23  0  0  1  0            999 V2000
   10.2277   -0.4125    0.0000 Cl   0  0  0  0  0  0  0  0  0  0  0  0
    6.4461   -1.0764    0.0000 O    0  0  0  0  0  0  0  0  0  0  0  0
    2.0930    0.4125    0.0000 O    0  0  0  0  0  0  0  0  0  0  0  0
    2.8075   -0.8250    0.0000 O    0  0  0  0  0  0  0  0  0  0  0  0
    6.4461    0.2514    0.0000 N    0  0  0  0  0  0  0  0  0  0  0  0
    3.5220    0.4125    0.0000 C    0  0  0  0  0  0  0  0  0  0  0  0
    4.2365    0.0000    0.0000 C    0  0  0  0  0  0  0  0  0  0  0  0
    5.6655    0.0000    0.0000 C    0  0  0  0  0  0  0  0  0  0  0  0
    4.9509    0.4125    0.0000 C    0  0  0  0  0  0  0  0  0  0  0  0
    5.6655   -0.8250    0.0000 C    0  0  0  0  0  0  0  0  0  0  0  0
    4.2365   -0.8250    0.0000 C    0  0  0  0  0  0  0  0  0  0  0  0
    4.9509   -1.2375    0.0000 C    0  0  0  0  0  0  0  0  0  0  0  0
    3.5220    1.2375    0.0000 C    0  0  0  0  0  0  0  0  0  0  0  0
    6.9276   -0.4125    0.0000 C    0  0  0  0  0  0  0  0  0  0  0  0
    7.7526   -0.4125    0.0000 C    0  0  0  0  0  0  0  0  0  0  0  0
    2.8075    0.0000    0.0000 C    0  0  0  0  0  0  0  0  0  0  0  0
    8.1651    0.3020    0.0000 C    0  0  0  0  0  0  0  0  0  0  0  0
    8.1651   -1.1270    0.0000 C    0  0  0  0  0  0  0  0  0  0  0  0
    8.9901    0.3020    0.0000 C    0  0  0  0  0  0  0  0  0  0  0  0
    8.9901   -1.1270    0.0000 C    0  0  0  0  0  0  0  0  0  0  0  0
    9.4026   -0.4125    0.0000 C    0  0  0  0  0  0  0  0  0  0  0  0
  1 21  1  0  0  0  0
  2 10  1  0  0  0  0
  2 14  1  0  0  0  0
  3 16  1  0  0  0  0
  4 16  2  0  0  0  0
  5  8  1  0  0  0  0
  5 14  2  0  0  0  0
  6  7  1  0  0  0  0
  6 13  1  0  0  0  0
  6 16  1  0  0  0  0
  7  9  2  0  0  0  0
  7 11  1  0  0  0  0
  8  9  1  0  0  0  0
  8 10  2  0  0  0  0
 10 12  1  0  0  0  0
 11 12  2  0  0  0  0
 14 15  1  0  0  0  0
 15 17  2  0  0  0  0
 15 18  1  0  0  0  0
 17 19  1  0  0  0  0
 18 20  2  0  0  0  0
 19 21  2  0  0  0  0
 20 21  1  0  0  0  0
M  END
> <DRUGBANK_ID>
DB04812

> <DRUG_GROUPS>
withdrawn

> <GENERIC_NAME>
Benoxaprofen

> <SYNONYMS>
(1)-2-(4-Chlorophenyl)benzoxazole-5-propionic acid; 2-(2-(4-Chlorophenyl)-1,3-benzoxazol-5-yl)propanoic acid; 2-(4-Chlorophenyl)-alpha-methyl-5-benzoxazoleacetic acid; 2-[2-(4-Chlorophenyl)-1,3-benzoxazol-5-yl]propanoic acid; Benoxaprofene [inn-french]; Benoxaprofeno [inn-spanish]; Benoxaprofenum [inn-latin]; DL-benoxaprofen

> <BRANDS>
Coxigon; Inflamid; Opren; Oraflex; Uniprofen

> <CHEMICAL_FORMULA>
C16H12ClNO3

> <MOLECULAR_WEIGHT>
301.724

> <EXACT_MASS>
301.050570962

> <IUPAC_NAME>
2-[2-(4-chlorophenyl)-1,3-benzoxazol-5-yl]propanoic acid

> <INCHI_IDENTIFIER>
InChI=1S/C16H12ClNO3/c1-9(16(19)20)11-4-7-14-13(8-11)18-15(21-14)10-2-5-12(17)6-3-10/h2-9H,1H3,(H,19,20)

> <INCHI_KEY>
InChIKey=MITFXPHMIHQXPI-UHFFFAOYSA-N

> <SMILES>
CC(C(O)=O)C1=CC2=C(OC(=N2)C2=CC=C(Cl)C=C2)C=C1

> <JCHEM_ACCEPTOR_COUNT>
3

> <JCHEM_DONOR_COUNT>
1

> <JCHEM_ACIDIC_PKA>
4.66

> <JCHEM_BASIC_PKA>
0.091

> <JCHEM_PHYSIOLOGICAL_CHARGE>
-1

> <ALOGPS_LOGP>
4.22

> <JCHEM_LOGP>
4.13

> <ALOGPS_LOGS>
-4

> <JCHEM_POLARIZABILITY>
31.34

> <JCHEM_POLAR_SURFACE_AREA>
63.33

> <JCHEM_REFRACTIVITY>
88.51

> <JCHEM_ROTATABLE_BOND_COUNT>
3

> <ALOGPS_SOLUBILITY>
3.17e-02 g/l __ 

$$$$
DB04813
ChemmineR-0317140124XD

 19 20  0  0  0  0            999 V2000
    4.9509    2.4751    0.0000 Cl   0  0  0  0  0  0  0  0  0  0  0  0
    2.0930   -2.4751    0.0000 Cl   0  0  0  0  0  0  0  0  0  0  0  0
    6.3799    0.0000    0.0000 Cl   0  0  0  0  0  0  0  0  0  0  0  0
    4.9509   -2.4751    0.0000 Cl   0  0  0  0  0  0  0  0  0  0  0  0
    3.5220    0.0000    0.0000 S    0  0  0  0  0  0  0  0  0  0  0  0
    3.5220    1.6500    0.0000 O    0  0  0  0  0  0  0  0  0  0  0  0
    2.0930   -0.8250    0.0000 O    0  0  0  0  0  0  0  0  0  0  0  0
    4.2365    0.4125    0.0000 C    0  0  0  0  0  0  0  0  0  0  0  0
    3.5220   -0.8250    0.0000 C    0  0  0  0  0  0  0  0  0  0  0  0
    4.2365    1.2375    0.0000 C    0  0  0  0  0  0  0  0  0  0  0  0
    2.8075   -1.2375    0.0000 C    0  0  0  0  0  0  0  0  0  0  0  0
    4.9509    0.0000    0.0000 C    0  0  0  0  0  0  0  0  0  0  0  0
    4.2365   -1.2375    0.0000 C    0  0  0  0  0  0  0  0  0  0  0  0
    4.9509    1.6500    0.0000 C    0  0  0  0  0  0  0  0  0  0  0  0
    2.8075   -2.0625    0.0000 C    0  0  0  0  0  0  0  0  0  0  0  0
    5.6655    0.4125    0.0000 C    0  0  0  0  0  0  0  0  0  0  0  0
    4.2365   -2.0625    0.0000 C    0  0  0  0  0  0  0  0  0  0  0  0
    5.6655    1.2375    0.0000 C    0  0  0  0  0  0  0  0  0  0  0  0
    3.5220   -2.4751    0.0000 C    0  0  0  0  0  0  0  0  0  0  0  0
  1 14  1  0  0  0  0
  2 15  1  0  0  0  0
  3 16  1  0  0  0  0
  4 17  1  0  0  0  0
  5  8  1  0  0  0  0
  5  9  1  0  0  0  0
  6 10  1  0  0  0  0
  7 11  1  0  0  0  0
  8 10  2  0  0  0  0
  8 12  1  0  0  0  0
  9 11  2  0  0  0  0
  9 13  1  0  0  0  0
 10 14  1  0  0  0  0
 11 15  1  0  0  0  0
 12 16  2  0  0  0  0
 13 17  2  0  0  0  0
 14 18  2  0  0  0  0
 15 19  2  0  0  0  0
 16 18  1  0  0  0  0
 17 19  1  0  0  0  0
M  END
> <DRUGBANK_ID>
DB04813

> <DRUG_GROUPS>
withdrawn

> <GENERIC_NAME>
Bithionol

> <SYNONYMS>
2-Hydroxy-3,5-dichlorophenyl sulfide; 2-Hydroxy-3,5-dichlorophenyl sulphide; 2,2'-Dihydroxy-3,3',5,5'-tetrachlorodiphenyl sulfide; 2,2'-Dihydroxy-3,3',5,5'-tetrachlorodiphenylsulfide; 2,2'-sulfanediylbis(4,6-dichlorophenol); 2,2'-Thiobis (4,6-dichlorophenol); 2,2'-Thiobis-(4,6-dichlorophenol); 2,2'-Thiobis(4,6-dichlorophenol); 2,2'-Thiobis[4,6-dichlorophenol]; Bis(2-hydroxy-3,5-dichlorophenyl) sulfide; Bis(3,5-dichloro-2-hydroxyphenyl) sulfide; Bithional; Bithionol sulfide; Bithionolate; Bithionolum [inn-latin]; Bitionol [inn-spanish]; Caswell No. 852; Usaf B-22

> <BRANDS>
Actamer; Bidiphen; Bisoxyphen; Bithin; Bitin; Bitionol; Lorothidol; Lorothiodol; Neopellis; Nobacter; Prevenol; Vancide BL

> <CHEMICAL_FORMULA>
C12H6Cl4O2S

> <MOLECULAR_WEIGHT>
356.052

> <EXACT_MASS>
353.884260954

> <IUPAC_NAME>
2,4-dichloro-6-[(3,5-dichloro-2-hydroxyphenyl)sulfanyl]phenol

> <INCHI_IDENTIFIER>
InChI=1S/C12H6Cl4O2S/c13-5-1-7(15)11(17)9(3-5)19-10-4-6(14)2-8(16)12(10)18/h1-4,17-18H

> <INCHI_KEY>
InChIKey=JFIOVJDNOJYLKP-UHFFFAOYSA-N

> <SMILES>
OC1=C(SC2=C(O)C(Cl)=CC(Cl)=C2)C=C(Cl)C=C1Cl

> <JCHEM_ACCEPTOR_COUNT>
2

> <JCHEM_DONOR_COUNT>
2

> <JCHEM_ACIDIC_PKA>
4.89

> <JCHEM_BASIC_PKA>
-7.2

> <JCHEM_PHYSIOLOGICAL_CHARGE>
-1

> <ALOGPS_LOGP>
6.12

> <JCHEM_LOGP>
5.97

> <ALOGPS_LOGS>
-5.3

> <JCHEM_POLARIZABILITY>
31.3

> <JCHEM_POLAR_SURFACE_AREA>
40.46

> <JCHEM_REFRACTIVITY>
81.92

> <JCHEM_ROTATABLE_BOND_COUNT>
2

> <ALOGPS_SOLUBILITY>
1.66e-03 g/l __ 

$$$$
DB04814
ChemmineR-0317140124XD

 22 22  0  0  0  0            999 V2000
    3.0791    0.5693    0.0000 I   0  0  0  0  0  0  0  0  0  0  0  0
    4.5080   -1.9058    0.0000 I   0  0  0  0  0  0  0  0  0  0  0  0
    5.9370    0.5693    0.0000 I   0  0  0  0  0  0  0  0  0  0  0  0
    3.7935   -2.3183    0.0000 O   0  0  0  0  0  0  0  0  0  0  0  0
    5.9370    3.0443    0.0000 O   0  0  0  0  0  0  0  0  0  0  0  0
    4.5080    3.0443    0.0000 O   0  0  0  0  0  0  0  0  0  0  0  0
    3.0791   -1.0808    0.0000 N   0  0  0  0  0  0  0  0  0  0  0  0
    2.3645   -2.3183    0.0000 C   0  0  0  0  0  0  0  0  0  0  0  0
    3.7935   -0.6683    0.0000 C   0  0  0  0  0  0  0  0  0  0  0  0
    4.5080    0.5693    0.0000 C   0  0  0  0  0  0  0  0  0  0  0  0
    2.3645   -3.1433    0.0000 C   0  0  0  0  0  0  0  0  0  0  0  0
    3.7935    0.1568    0.0000 C   0  0  0  0  0  0  0  0  0  0  0  0
    3.0791   -1.9058    0.0000 C   0  0  0  0  0  0  0  0  0  0  0  0
    4.5080    1.3943    0.0000 C   0  0  0  0  0  0  0  0  0  0  0  0
    5.2224    1.8068    0.0000 C   0  0  0  0  0  0  0  0  0  0  0  0
    4.5080   -1.0808    0.0000 C   0  0  0  0  0  0  0  0  0  0  0  0
    5.2224    0.1568    0.0000 C   0  0  0  0  0  0  0  0  0  0  0  0
    5.9370    1.3943    0.0000 C   0  0  0  0  0  0  0  0  0  0  0  0
    5.2224   -0.6683    0.0000 C   0  0  0  0  0  0  0  0  0  0  0  0
    1.6500   -3.5558    0.0000 C   0  0  0  0  0  0  0  0  0  0  0  0
    6.6515    1.8068    0.0000 C   0  0  0  0  0  0  0  0  0  0  0  0
    5.2224    2.6318    0.0000 C   0  0  0  0  0  0  0  0  0  0  0  0
  1 12  1  0  0  0  0
  2 16  1  0  0  0  0
  3 17  1  0  0  0  0
  4 13  2  0  0  0  0
  5 22  1  0  0  0  0
  6 22  2  0  0  0  0
  7  9  1  0  0  0  0
  7 13  1  0  0  0  0
  8 11  1  0  0  0  0
  8 13  1  0  0  0  0
  9 12  1  0  0  0  0
  9 16  2  0  0  0  0
 10 12  2  0  0  0  0
 10 14  1  0  0  0  0
 10 17  1  0  0  0  0
 11 20  1  0  0  0  0
 14 15  2  0  0  0  0
 15 18  1  0  0  0  0
 15 22  1  0  0  0  0
 16 19  1  0  0  0  0
 17 19  2  0  0  0  0
 18 21  1  0  0  0  0
M  END
> <DRUGBANK_ID>
DB04814

> <DRUG_GROUPS>
withdrawn

> <GENERIC_NAME>
Bunamiodyl

> <SYNONYMS>
2-(3-Butyramido-3,4,6-triiodophenylmethylene)butyric acid; 3-(3-Butylamido-2,4,6-triiodphenyl)-2-ethylacrylsaeure; Bunamiodilo [inn-spanish]; Bunamiodylum [inn-latin]

> <BRANDS>
Bunamijodylum; Buniodyl

> <CHEMICAL_FORMULA>
C15H16I3NO3

> <MOLECULAR_WEIGHT>
639.0059

> <EXACT_MASS>
638.826423643

> <IUPAC_NAME>
(2E)-2-[(3-butanamido-2,4,6-triiodophenyl)methylidene]butanoic acid

> <INCHI_IDENTIFIER>
InChI=1S/C15H16I3NO3/c1-3-5-12(20)19-14-11(17)7-10(16)9(13(14)18)6-8(4-2)15(21)22/h6-7H,3-5H2,1-2H3,(H,19,20)(H,21,22)/b8-6+

> <INCHI_KEY>
InChIKey=CWRBDUIQDIHWJZ-SOFGYWHQSA-N

> <SMILES>
CCCC(=O)NC1=C(I)C=C(I)C(\C=C(/CC)C(O)=O)=C1I

> <JCHEM_ACCEPTOR_COUNT>
3

> <JCHEM_DONOR_COUNT>
2

> <JCHEM_ACIDIC_PKA>
2.37

> <JCHEM_BASIC_PKA>
-3.9

> <JCHEM_PHYSIOLOGICAL_CHARGE>
-1

> <ALOGPS_LOGP>
4.1

> <JCHEM_LOGP>
6.15

> <ALOGPS_LOGS>
-5.4

> <JCHEM_POLARIZABILITY>
43.5

> <JCHEM_POLAR_SURFACE_AREA>
66.4

> <JCHEM_REFRACTIVITY>
116.2

> <JCHEM_ROTATABLE_BOND_COUNT>
6

> <ALOGPS_SOLUBILITY>
2.30e-03 g/l __ 

$$$$
DB04815
ChemmineR-0317140124XD

 13 14  0  0  0  0            999 V2000
    1.6498   -0.6970    0.0000 I    0  0  0  0  0  0  0  0  0  0  0  0
    3.0786    1.7777    0.0000 Cl   0  0  0  0  0  0  0  0  0  0  0  0
    3.0786   -1.5219    0.0000 O    0  0  0  0  0  0  0  0  0  0  0  0
    4.5303   -0.7257    0.0000 N    0  0  0  0  0  0  0  0  0  0  0  0
    3.7929    0.5403    0.0000 C    0  0  0  0  0  0  0  0  0  0  0  0
    3.7929   -0.2846    0.0000 C    0  0  0  0  0  0  0  0  0  0  0  0
    3.0786   -0.6970    0.0000 C    0  0  0  0  0  0  0  0  0  0  0  0
    3.0786    0.9528    0.0000 C    0  0  0  0  0  0  0  0  0  0  0  0
    4.5303    0.9814    0.0000 C    0  0  0  0  0  0  0  0  0  0  0  0
    2.3641   -0.2846    0.0000 C    0  0  0  0  0  0  0  0  0  0  0  0
    2.3641    0.5403    0.0000 C    0  0  0  0  0  0  0  0  0  0  0  0
    5.2777    0.5574    0.0000 C    0  0  0  0  0  0  0  0  0  0  0  0
    5.2777   -0.3018    0.0000 C    0  0  0  0  0  0  0  0  0  0  0  0
  1 10  1  0  0  0  0
  2  8  1  0  0  0  0
  3  7  1  0  0  0  0
  4  6  1  0  0  0  0
  4 13  2  0  0  0  0
  5  6  2  0  0  0  0
  5  8  1  0  0  0  0
  5  9  1  0  0  0  0
  6  7  1  0  0  0  0
  7 10  2  0  0  0  0
  8 11  2  0  0  0  0
  9 12  2  0  0  0  0
 10 11  1  0  0  0  0
 12 13  1  0  0  0  0
M  END
> <DRUGBANK_ID>
DB04815

> <DRUG_GROUPS>
withdrawn

> <GENERIC_NAME>
Clioquinol

> <SYNONYMS>
5-Chlor-7-jod-8-hydroxy-chinolin [German]; 5-Chloro-7-iodo-8-hydroxyquinoline; 5-Chloro-7-iodo-8-quinolinol; 5-Chloro-7-iodoquinolin-8-ol; 5-Chloro-8-hydroxy-7-iodoquinoline; 7-Iodo-5-chloro-8-hydroxyquinoline; 7-Iodo-5-chloroxine; Caswell No. 193; Chloro-8-hydroxyiodoquinoline; Chloroiodoquin; Chloroiodoquine; Cliochinolo [dcit]; Clioquinolum [inn-latin]; IODO; Iodochlorhydroxyquin; Iodochlorhydroxyquinol; Iodochlorhydroxyquinoline; Iodochlorohydroxyquin; Iodochlorohydroxyquinoline; Iodochloroquine; Iodochloroxine; Iodochloroxychinolinum; Iodochloroxyquinoline; Iodoxyquinoline; Jodchloroxychinolinum

> <BRANDS>
Ala-quin; Alchloquin; Alioform; Amebil; Amoenol; Bactol; Barquinol; Budoform; Chinoform; Chinoformum; Chlorojodochin; Cifoform; Cliochinolum; Cliquinol; Corque; Cortin; Cremo-quin; Dermaform; Dioquinol; Domeform; Eczecidin; Emaform; Enteritan; Entero-bio form; Entero-bioform; Entero-septol; Entero-vioform; Entero-vioformio; Enteroquinol; Enteroseptol; Enterovalodon; Enterozol; Enterseptol; Enterum locorten; Entrokin; Hi-eneterol; Hi-enterol; Hydriodide-enterol; Iodenterol; Iodoenterol; Lekosept; Loquinol; Mycoquin; Nioform; Oralcer; Quin-o-creme; Quinambicide; Quinoform; Rheaform; Rometin; Uad lotion

> <CHEMICAL_FORMULA>
C9H5ClINO

> <MOLECULAR_WEIGHT>
305.5

> <EXACT_MASS>
304.910434914

> <IUPAC_NAME>
5-chloro-7-iodoquinolin-8-ol

> <INCHI_IDENTIFIER>
InChI=1S/C9H5ClINO/c10-6-4-7(11)9(13)8-5(6)2-1-3-12-8/h1-4,13H

> <INCHI_KEY>
InChIKey=QCDFBFJGMNKBDO-UHFFFAOYSA-N

> <SMILES>
OC1=C(I)C=C(Cl)C2=C1N=CC=C2

> <JCHEM_ACCEPTOR_COUNT>
2

> <JCHEM_DONOR_COUNT>
1

> <JCHEM_ACIDIC_PKA>
7.34

> <JCHEM_BASIC_PKA>
3.28

> <JCHEM_PHYSIOLOGICAL_CHARGE>
0

> <ALOGPS_LOGP>
3.66

> <JCHEM_LOGP>
3.36

> <ALOGPS_LOGS>
-3.1

> <JCHEM_POLARIZABILITY>
22.63

> <JCHEM_POLAR_SURFACE_AREA>
33.12

> <JCHEM_REFRACTIVITY>
60.13

> <JCHEM_ROTATABLE_BOND_COUNT>
0

> <ALOGPS_SOLUBILITY>
2.64e-01 g/l __ 

$$$$
DB04816
ChemmineR-0317140124XD

 18 20  0  0  0  0            999 V2000
    3.6957    1.4452    0.0000 O   0  0  0  0  0  0  0  0  0  0  0  0
    3.6957   -1.7230    0.0000 O   0  0  0  0  0  0  0  0  0  0  0  0
    5.0805    1.4726    0.0000 O   0  0  0  0  0  0  0  0  0  0  0  0
    2.3109    1.4726    0.0000 O   0  0  0  0  0  0  0  0  0  0  0  0
    4.3817    0.2571    0.0000 C   0  0  0  0  0  0  0  0  0  0  0  0
    3.0098    0.2571    0.0000 C   0  0  0  0  0  0  0  0  0  0  0  0
    4.3817   -0.5350    0.0000 C   0  0  0  0  0  0  0  0  0  0  0  0
    3.0098   -0.5350    0.0000 C   0  0  0  0  0  0  0  0  0  0  0  0
    3.6957    0.6531    0.0000 C   0  0  0  0  0  0  0  0  0  0  0  0
    3.6957   -0.9310    0.0000 C   0  0  0  0  0  0  0  0  0  0  0  0
    5.0897    0.6806    0.0000 C   0  0  0  0  0  0  0  0  0  0  0  0
    2.3018    0.6806    0.0000 C   0  0  0  0  0  0  0  0  0  0  0  0
    5.0897   -0.9585    0.0000 C   0  0  0  0  0  0  0  0  0  0  0  0
    2.3018   -0.9585    0.0000 C   0  0  0  0  0  0  0  0  0  0  0  0
    5.8074    0.2736    0.0000 C   0  0  0  0  0  0  0  0  0  0  0  0
    1.5841    0.2736    0.0000 C   0  0  0  0  0  0  0  0  0  0  0  0
    5.8074   -0.5514    0.0000 C   0  0  0  0  0  0  0  0  0  0  0  0
    1.5841   -0.5514    0.0000 C   0  0  0  0  0  0  0  0  0  0  0  0
  1  9  2  0  0  0  0
  2 10  2  0  0  0  0
  3 11  1  0  0  0  0
  4 12  1  0  0  0  0
  5  7  2  0  0  0  0
  5  9  1  0  0  0  0
  5 11  1  0  0  0  0
  6  8  2  0  0  0  0
  6  9  1  0  0  0  0
  6 12  1  0  0  0  0
  7 10  1  0  0  0  0
  7 13  1  0  0  0  0
  8 10  1  0  0  0  0
  8 14  1  0  0  0  0
 11 15  2  0  0  0  0
 12 16  2  0  0  0  0
 13 17  2  0  0  0  0
 14 18  2  0  0  0  0
 15 17  1  0  0  0  0
 16 18  1  0  0  0  0
M  END
> <DRUGBANK_ID>
DB04816

> <DRUG_GROUPS>
withdrawn; investigational

> <GENERIC_NAME>
Dantron

> <SYNONYMS>
1,8-dihydroxy-9,10-anthracenedione; 1,8-dihydroxy-9,10-anthraquinone; 1,8-dihydroxyanthra-9,10-quinone; 1,8-Dihydroxyanthrachinon; 1,8-Dihydroxyanthraquinone; Chrysazin; Danthron

> <BRANDS>
Altan; Antrapurol; Bancon; Chrysazin; Chrysazine; Criasazin; Danivac; Dantron; Diaquone; Dionone; Dorbane; Dorbanex; Dorbantyl; Duolax; Istan; Istin; Istizin; Laxanorm; Laxanthreen; Laxipur; Laxipurin; LTAN; Neokutin s; Pastomin; Prugol; Roydan; Scatron d; Zwitsalax

> <CHEMICAL_FORMULA>
C14H8O4

> <MOLECULAR_WEIGHT>
240.2109

> <EXACT_MASS>
240.042258744

> <IUPAC_NAME>
1,8-dihydroxy-9,10-dihydroanthracene-9,10-dione

> <INCHI_IDENTIFIER>
InChI=1S/C14H8O4/c15-9-5-1-3-7-11(9)14(18)12-8(13(7)17)4-2-6-10(12)16/h1-6,15-16H

> <INCHI_KEY>
InChIKey=QBPFLULOKWLNNW-UHFFFAOYSA-N

> <SMILES>
OC1=CC=CC2=C1C(=O)C1=C(C=CC=C1O)C2=O

> <JCHEM_ACCEPTOR_COUNT>
4

> <JCHEM_DONOR_COUNT>
2

> <JCHEM_ACIDIC_PKA>
9.09

> <JCHEM_BASIC_PKA>
-4.4

> <JCHEM_PHYSIOLOGICAL_CHARGE>
0

> <ALOGPS_LOGP>
2.98

> <JCHEM_LOGP>
3.61

> <ALOGPS_LOGS>
-2.9

> <JCHEM_POLARIZABILITY>
23.19

> <JCHEM_POLAR_SURFACE_AREA>
74.6

> <JCHEM_REFRACTIVITY>
65.11

> <JCHEM_ROTATABLE_BOND_COUNT>
0

> <ALOGPS_SOLUBILITY>
3.05e-01 g/l __ 

$$$$
DB04817
ChemmineR-0317140124XD

 22 22  0  0  1  0            999 V2000
    5.0479    6.3447    0.0000 S    0  0  0  0  0  0  0  0  0  0  0  0
    5.1972    7.7658    0.0000 Na   0  3  0  0  0  0  0  0  0  0  0  0
    5.4532    3.2166    0.0000 O    0  0  0  0  0  0  0  0  0  0  0  0
    5.5328    7.0121    0.0000 O    0  5  0  0  0  0  0  0  0  0  0  0
    5.7154    5.8597    0.0000 O    0  0  0  0  0  0  0  0  0  0  0  0
    4.3804    6.8296    0.0000 O    0  0  0  0  0  0  0  0  0  0  0  0
    3.3336    3.4715    0.0000 N    0  0  0  0  0  0  0  0  0  0  0  0
    4.0011    2.9865    0.0000 N    0  0  0  0  0  0  0  0  0  0  0  0
    4.8985    4.9236    0.0000 N    0  0  0  0  0  0  0  0  0  0  0  0
    4.4136    4.2561    0.0000 C    0  0  0  0  0  0  0  0  0  0  0  0
    3.5886    4.2561    0.0000 C    0  0  0  0  0  0  0  0  0  0  0  0
    4.6685    3.4715    0.0000 C    0  0  0  0  0  0  0  0  0  0  0  0
    4.5630    5.6772    0.0000 C    0  0  0  0  0  0  0  0  0  0  0  0
    4.0011    2.1615    0.0000 C    0  0  0  0  0  0  0  0  0  0  0  0
    3.1036    4.9236    0.0000 C    0  0  0  0  0  0  0  0  0  0  0  0
    2.5490    3.2166    0.0000 C    0  0  0  0  0  0  0  0  0  0  0  0
    5.7190    4.8373    0.0000 C    0  0  0  0  0  0  0  0  0  0  0  0
    4.7156    1.7490    0.0000 C    0  0  0  0  0  0  0  0  0  0  0  0
    3.2866    1.7490    0.0000 C    0  0  0  0  0  0  0  0  0  0  0  0
    4.7156    0.9240    0.0000 C    0  0  0  0  0  0  0  0  0  0  0  0
    3.2866    0.9240    0.0000 C    0  0  0  0  0  0  0  0  0  0  0  0
    4.0011    0.5115    0.0000 C    0  0  0  0  0  0  0  0  0  0  0  0
  1  4  1  0  0  0  0
  1  5  2  0  0  0  0
  1  6  2  0  0  0  0
  1 13  1  0  0  0  0
  3 12  2  0  0  0  0
  7  8  1  0  0  0  0
  7 11  1  0  0  0  0
  7 16  1  0  0  0  0
  8 12  1  0  0  0  0
  8 14  1  0  0  0  0
  9 10  1  0  0  0  0
  9 13  1  0  0  0  0
  9 17  1  0  0  0  0
 10 11  2  0  0  0  0
 10 12  1  0  0  0  0
 11 15  1  0  0  0  0
 14 18  2  0  0  0  0
 14 19  1  0  0  0  0
 18 20  1  0  0  0  0
 19 21  2  0  0  0  0
 20 22  2  0  0  0  0
 21 22  1  0  0  0  0
M  END
> <DRUGBANK_ID>
DB04817

> <DRUG_GROUPS>
withdrawn

> <GENERIC_NAME>
Dipyrone

> <SYNONYMS>
Aminopyrine sodium sulfonate; Analgine; Analginum; ARPF; Dipyrone monohydrate; Meamizol sodico [inn-spanish]; Metamizol; Metamizol monohydrate; Metamizol sodico [spanish]; Metamizole; Metamizole sodique [inn-french]; Metamizole sodium; Metamizolnatrium; Metamizolo [italian]; Metamizolo sodico [dcit]; Metamizolum; Metamizolum natricum [inn-latin]; Metamizolum natricum [latin]; Methylaminoantipyrine sodium methanesulfonate; Methylaminophenyldimethylpyrazolone methanesulfonate sodium

> <BRANDS>
Alginodia; Algocalmin; Algopyrine; Analgin; Barone; Bonpyrin; Conmel; Di-podil; Dimethone; Diprofarn; Farmolisina; Fevonil; Gifaril; Keypyrone; Metapyrin; Methylmelubrin; Metilon; Narone; Neo-melubrine; Neomelurbrin; Nevralgina; Novaldin; Novalgetol; Novalgin; Noveltex; Optalgin; Paralgin; Pharmalgine; Pyralgin; Pyretin; Pyrojec; Sulpin; Sulpyrin; Sulpyrine; Sulpyrinum

> <CHEMICAL_FORMULA>
C13H16N3NaO4S

> <MOLECULAR_WEIGHT>
333.339

> <EXACT_MASS>
333.07592138

> <IUPAC_NAME>
sodium [(1,5-dimethyl-3-oxo-2-phenyl-2,3-dihydro-1H-pyrazol-4-yl)(methyl)amino]methanesulfonate

> <INCHI_IDENTIFIER>
InChI=1S/C13H17N3O4S.Na/c1-10-12(14(2)9-21(18,19)20)13(17)16(15(10)3)11-7-5-4-6-8-11;/h4-8H,9H2,1-3H3,(H,18,19,20);/q;+1/p-1

> <INCHI_KEY>
InChIKey=DJGAAPFSPWAYTJ-UHFFFAOYSA-M

> <SMILES>
[Na+].CN(CS([O-])(=O)=O)C1=C(C)N(C)N(C1=O)C1=CC=CC=C1

> <JCHEM_ACCEPTOR_COUNT>
6

> <JCHEM_DONOR_COUNT>
0

> <JCHEM_ACIDIC_PKA>
-1.2

> <JCHEM_BASIC_PKA>
-0.44

> <JCHEM_PHYSIOLOGICAL_CHARGE>
-1

> <ALOGPS_LOGP>
1.07

> <JCHEM_LOGP>
-0.82

> <ALOGPS_LOGS>
-1.8

> <JCHEM_POLARIZABILITY>
31.11

> <JCHEM_POLAR_SURFACE_AREA>
83.99

> <JCHEM_REFRACTIVITY>
78.92

> <JCHEM_ROTATABLE_BOND_COUNT>
4

> <ALOGPS_SOLUBILITY>
5.80e+00 g/l __ 

$$$$
DB04818
ChemmineR-0317140124XD

 13 13  0  0  0  0            999 V2000
    1.6500    0.4125    0.0000 O   0  0  0  0  0  0  0  0  0  0  0  0
    3.0791    1.2375    0.0000 N   0  0  0  0  0  0  0  0  0  0  0  0
    3.0791    0.4125    0.0000 N   0  0  0  0  0  0  0  0  0  0  0  0
    2.3645   -2.4751    0.0000 N   0  0  0  0  0  0  0  0  0  0  0  0
    3.7935    1.6500    0.0000 C   0  0  0  0  0  0  0  0  0  0  0  0
    3.7935    2.4751    0.0000 C   0  0  0  0  0  0  0  0  0  0  0  0
    4.5080    1.2375    0.0000 C   0  0  0  0  0  0  0  0  0  0  0  0
    2.3645    0.0000    0.0000 C   0  0  0  0  0  0  0  0  0  0  0  0
    2.3645   -0.8250    0.0000 C   0  0  0  0  0  0  0  0  0  0  0  0
    3.0791   -1.2375    0.0000 C   0  0  0  0  0  0  0  0  0  0  0  0
    1.6500   -1.2375    0.0000 C   0  0  0  0  0  0  0  0  0  0  0  0
    3.0791   -2.0625    0.0000 C   0  0  0  0  0  0  0  0  0  0  0  0
    1.6500   -2.0625    0.0000 C   0  0  0  0  0  0  0  0  0  0  0  0
  1  8  2  0  0  0  0
  2  3  1  0  0  0  0
  2  5  1  0  0  0  0
  3  8  1  0  0  0  0
  4 12  2  0  0  0  0
  4 13  1  0  0  0  0
  5  6  1  0  0  0  0
  5  7  1  0  0  0  0
  8  9  1  0  0  0  0
  9 10  2  0  0  0  0
  9 11  1  0  0  0  0
 10 12  1  0  0  0  0
 11 13  2  0  0  0  0
M  END
> <DRUGBANK_ID>
DB04818

> <DRUG_GROUPS>
withdrawn

> <GENERIC_NAME>
Iproniazid

> <BRANDS>
Ipronid; Iprozid; Marsilid; Propilniazida; Rivivol

> <CHEMICAL_FORMULA>
C9H13N3O

> <MOLECULAR_WEIGHT>
179.219

> <EXACT_MASS>
179.105862053

> <IUPAC_NAME>
N'-(propan-2-yl)pyridine-4-carbohydrazide

> <INCHI_IDENTIFIER>
InChI=1S/C9H13N3O/c1-7(2)11-12-9(13)8-3-5-10-6-4-8/h3-7,11H,1-2H3,(H,12,13)

> <INCHI_KEY>
InChIKey=NYMGNSNKLVNMIA-UHFFFAOYSA-N

> <SMILES>
CC(C)NNC(=O)C1=CC=NC=C1

> <JCHEM_ACCEPTOR_COUNT>
3

> <JCHEM_DONOR_COUNT>
2

> <JCHEM_ACIDIC_PKA>
13.66

> <JCHEM_BASIC_PKA>
3.82

> <JCHEM_PHYSIOLOGICAL_CHARGE>
0

> <ALOGPS_LOGP>
0.02

> <JCHEM_LOGP>
0.31

> <ALOGPS_LOGS>
-2.4

> <JCHEM_POLARIZABILITY>
19.19

> <JCHEM_POLAR_SURFACE_AREA>
54.02

> <JCHEM_REFRACTIVITY>
60.96

> <JCHEM_ROTATABLE_BOND_COUNT>
3

> <ALOGPS_SOLUBILITY>
6.74e-01 g/l __ 

$$$$
DB04819
ChemmineR-0317140124XD

 19 19  0  0  1  0            999 V2000
    2.5024    6.7296    0.0000 Cl   0  0  0  0  0  0  0  0  0  0  0  0
    1.7282    2.0975    0.0000 S    0  0  0  0  0  0  0  0  0  0  0  0
    3.2434    2.9180    0.0000 N    0  0  0  0  0  0  0  0  0  0  0  0
    3.9579    0.8555    0.0000 N    0  0  0  0  0  0  0  0  0  0  0  0
    4.6724    2.9180    0.0000 N    0  0  0  0  0  0  0  0  0  0  0  0
    3.2434    2.0930    0.0000 C    0  0  0  0  0  0  0  0  0  0  0  0
    3.9579    1.6805    0.0000 C    0  0  0  0  0  0  0  0  0  0  0  0
    2.5289    3.3305    0.0000 C    0  0  0  0  0  0  0  0  0  0  0  0
    3.9579    3.3305    0.0000 C    0  0  0  0  0  0  0  0  0  0  0  0
    1.8145    2.9180    0.0000 C    0  0  0  0  0  0  0  0  0  0  0  0
    3.2434    0.4430    0.0000 C    0  0  0  0  0  0  0  0  0  0  0  0
    4.6724    0.4430    0.0000 C    0  0  0  0  0  0  0  0  0  0  0  0
    3.9579    4.1555    0.0000 C    0  0  0  0  0  0  0  0  0  0  0  0
    1.0607    3.2536    0.0000 C    0  0  0  0  0  0  0  0  0  0  0  0
    0.5087    2.6405    0.0000 C    0  0  0  0  0  0  0  0  0  0  0  0
    4.6724    4.5680    0.0000 C    0  0  0  0  0  0  0  0  0  0  0  0
    0.9212    1.9260    0.0000 C    0  0  0  0  0  0  0  0  0  0  0  0
    5.3869    3.3305    0.0000 C    0  0  0  0  0  0  0  0  0  0  0  0
    5.3869    4.1555    0.0000 C    0  0  0  0  0  0  0  0  0  0  0  0
  2 10  1  0  0  0  0
  2 17  1  0  0  0  0
  3  6  1  0  0  0  0
  3  8  1  0  0  0  0
  3  9  1  0  0  0  0
  4  7  1  0  0  0  0
  4 11  1  0  0  0  0
  4 12  1  0  0  0  0
  5  9  1  0  0  0  0
  5 18  2  0  0  0  0
  6  7  1  0  0  0  0
  8 10  1  0  0  0  0
  9 13  2  0  0  0  0
 10 14  2  0  0  0  0
 13 16  1  0  0  0  0
 14 15  1  0  0  0  0
 15 17  2  0  0  0  0
 16 19  2  0  0  0  0
 18 19  1  0  0  0  0
M  END
> <DRUGBANK_ID>
DB04819

> <DRUG_GROUPS>
withdrawn

> <GENERIC_NAME>
Methapyrilene

> <SYNONYMS>
2-[[2-(Dimethylamino)ethyl]-2-thenylamino]pyridine; Methapyrilene HCL; Methapyrilene hydrochloride; Methapyriline; Methoxylene; Methypyrilene hydrochloride; N,N-Dimethyl-N'-pyrid-2-yl-N'-2-thenylethylenediamine

> <BRANDS>
Barhist; Blue line; Capathyn; Coryzol; Dormin; Dozar; Histadyl; Histafed; Lullamin; Metapyrilene; Methacon; Methaphenilene; Paradormalene; Pyrathyn; Pyrinistab; Pyrinistol; Rest-on; Restryl; Semikon; Sleepwell; Somnicaps; Tem-histine; Tenalin; Teralin; Thenylene; Thenylpyramine; Thionylan

> <CHEMICAL_FORMULA>
C14H20ClN3S

> <MOLECULAR_WEIGHT>
297.847

> <EXACT_MASS>
297.106646052

> <IUPAC_NAME>
N-[2-(dimethylamino)ethyl]-N-(thiophen-2-ylmethyl)pyridin-2-amine hydrochloride

> <INCHI_IDENTIFIER>
InChI=1S/C14H19N3S.ClH/c1-16(2)9-10-17(12-13-6-5-11-18-13)14-7-3-4-8-15-14;/h3-8,11H,9-10,12H2,1-2H3;1H

> <INCHI_KEY>
InChIKey=BONORRGKLJBGRV-UHFFFAOYSA-N

> <SMILES>
Cl.CN(C)CCN(CC1=CC=CS1)C1=CC=CC=N1

> <JCHEM_ACCEPTOR_COUNT>
3

> <JCHEM_DONOR_COUNT>
0

> <JCHEM_BASIC_PKA>
8.76

> <JCHEM_PHYSIOLOGICAL_CHARGE>
1

> <JCHEM_LOGP>
3.11

> <JCHEM_POLARIZABILITY>
29.5

> <JCHEM_POLAR_SURFACE_AREA>
19.37

> <JCHEM_REFRACTIVITY>
78.16

> <JCHEM_ROTATABLE_BOND_COUNT>
6 __ 

$$$$
DB04820
ChemmineR-0317140124XD

 22 23  0  0  0  0            999 V2000
    5.2223    0.4125    0.0000 O   0  0  0  0  0  0  0  0  0  0  0  0
    1.6500   -1.6500    0.0000 O   0  0  0  0  0  0  0  0  0  0  0  0
    4.5079    1.6500    0.0000 N   0  0  0  0  0  0  0  0  0  0  0  0
    3.0790   -0.8250    0.0000 N   0  0  0  0  0  0  0  0  0  0  0  0
    3.0790   -1.6500    0.0000 N   0  0  0  0  0  0  0  0  0  0  0  0
    2.3644   -4.5375    0.0000 N   0  0  0  0  0  0  0  0  0  0  0  0
    3.7934    0.4125    0.0000 C   0  0  0  0  0  0  0  0  0  0  0  0
    3.7934   -0.4125    0.0000 C   0  0  0  0  0  0  0  0  0  0  0  0
    5.2223    2.0625    0.0000 C   0  0  0  0  0  0  0  0  0  0  0  0
    4.5079    0.8250    0.0000 C   0  0  0  0  0  0  0  0  0  0  0  0
    5.2223    2.8875    0.0000 C   0  0  0  0  0  0  0  0  0  0  0  0
    4.5079    3.3000    0.0000 C   0  0  0  0  0  0  0  0  0  0  0  0
    5.9369    3.3000    0.0000 C   0  0  0  0  0  0  0  0  0  0  0  0
    4.5079    4.1250    0.0000 C   0  0  0  0  0  0  0  0  0  0  0  0
    5.9369    4.1250    0.0000 C   0  0  0  0  0  0  0  0  0  0  0  0
    2.3644   -2.0625    0.0000 C   0  0  0  0  0  0  0  0  0  0  0  0
    5.2223    4.5375    0.0000 C   0  0  0  0  0  0  0  0  0  0  0  0
    2.3644   -2.8875    0.0000 C   0  0  0  0  0  0  0  0  0  0  0  0
    3.0790   -3.3000    0.0000 C   0  0  0  0  0  0  0  0  0  0  0  0
    1.6500   -3.3000    0.0000 C   0  0  0  0  0  0  0  0  0  0  0  0
    3.0790   -4.1250    0.0000 C   0  0  0  0  0  0  0  0  0  0  0  0
    1.6500   -4.1250    0.0000 C   0  0  0  0  0  0  0  0  0  0  0  0
  1 10  2  0  0  0  0
  2 16  2  0  0  0  0
  3  9  1  0  0  0  0
  3 10  1  0  0  0  0
  4  5  1  0  0  0  0
  4  8  1  0  0  0  0
  5 16  1  0  0  0  0
  6 21  2  0  0  0  0
  6 22  1  0  0  0  0
  7  8  1  0  0  0  0
  7 10  1  0  0  0  0
  9 11  1  0  0  0  0
 11 12  2  0  0  0  0
 11 13  1  0  0  0  0
 12 14  1  0  0  0  0
 13 15  2  0  0  0  0
 14 17  2  0  0  0  0
 15 17  1  0  0  0  0
 16 18  1  0  0  0  0
 18 19  2  0  0  0  0
 18 20  1  0  0  0  0
 19 21  1  0  0  0  0
 20 22  2  0  0  0  0
M  END
> <DRUGBANK_ID>
DB04820

> <DRUG_GROUPS>
withdrawn

> <GENERIC_NAME>
Nialamide

> <SYNONYMS>
1-(2-(Benzylcarbamoyl)ethyl)-2-isonicotinoylhydrazine; 1-[2-(Benzylcarbamoyl)ethyl]-2-isonicotinoylhydrazine; 2-(2-(Benzylcarbamoyl)ethyl)hydrazide isonicotinic acid; 2-(2-(Benzylcarbamoyl)ethyl)hydrazide, isonicotinic acid; 2-(2-(Benzylcarbamyl)ethyl)hydrazide isonicotinic acid; 2-[2-(Benzylcarbamoyl)ethyl]hydrazide isonicotinic acid; BEIH; Isonicitinic acid 2-[(2-benzylcarbamoyl)ethyl]hydrazide; Isonicotinic acid 2-((2-benzylcarbamoyl)ethyl)hydrazide; Isonicotinic acid, {2-[2-(benzylcarbamoyl)ethyl]hydrazide}; Isonicotinic acid, {2-[2-(benzylcarbamoylethyl]hydrazide}; Isonicotinic acid, 2-(2-(benzylcarbamoyl)ethyl)hydrazide; Isonicotinic acid, 2-[2- (benzylcarbamoyl)ethyl]hydrazide; Isonicotinic acid, 2-[2-(benzylcarbamoyl)ethyl]hydrazide; Isonicotinic acid, 2-[2-(benzylcarbamoylethyl]hydrazide; Lopac-N-1392; N-(2-(Benzylcarbamyl)ethylamino)isonicotinamide; N-Benzyl-3-(2-isonicotinoylhydrazino)propanamide; N-benzyl-beta-(isonicotinoylhydrazine)propionamide; N-benzyl-beta-(isonicotinylhydrazino)propionamide; N-isonicotinoyl-n'(beta-n-benzylcarboxamidoethyl)hydrazine; N-isonicotinyl hydrazide; Nialamida [inn-spanish]; Nialamidum [inn-latin]; Pyridine-4-carboxylic 2-[2-(benzylcarbamoyl)ethyl]hydrazide

> <BRANDS>
Delmoneurina; Espril; Isalizina; Mygal; NF-xIII; Nialamid; Niamid; Niamidal; Niamide; Niaquitil; Niazin; Novazid; Nuredal; Nyazin; Nyezin; Psicodisten; Surgex

> <CHEMICAL_FORMULA>
C16H18N4O2

> <MOLECULAR_WEIGHT>
298.3397

> <EXACT_MASS>
298.14297584

> <IUPAC_NAME>
N-benzyl-3-(pyridin-4-ylformohydrazido)propanamide

> <INCHI_IDENTIFIER>
InChI=1S/C16H18N4O2/c21-15(18-12-13-4-2-1-3-5-13)8-11-19-20-16(22)14-6-9-17-10-7-14/h1-7,9-10,19H,8,11-12H2,(H,18,21)(H,20,22)

> <INCHI_KEY>
InChIKey=NOIIUHRQUVNIDD-UHFFFAOYSA-N

> <SMILES>
O=C(CCNNC(=O)C1=CC=NC=C1)NCC1=CC=CC=C1

> <JCHEM_ACCEPTOR_COUNT>
4

> <JCHEM_DONOR_COUNT>
3

> <JCHEM_ACIDIC_PKA>
13.65

> <JCHEM_BASIC_PKA>
3.41

> <JCHEM_PHYSIOLOGICAL_CHARGE>
0

> <ALOGPS_LOGP>
0.65

> <JCHEM_LOGP>
0.39

> <ALOGPS_LOGS>
-3.5

> <JCHEM_POLARIZABILITY>
32.07

> <JCHEM_POLAR_SURFACE_AREA>
83.12

> <JCHEM_REFRACTIVITY>
93.91

> <JCHEM_ROTATABLE_BOND_COUNT>
7

> <ALOGPS_SOLUBILITY>
8.73e-02 g/l __ 

$$$$
DB04821
ChemmineR-0317140124XD

 18 20  0  0  1  0            999 V2000
    2.3645    1.0928    0.0000 N   0  0  0  0  0  0  0  0  0  0  0  0
    4.5214    2.3588    0.0000 N   0  0  0  0  0  0  0  0  0  0  0  0
    3.0790   -0.1447    0.0000 C   0  0  0  0  0  0  0  0  0  0  0  0
    2.3645    0.2678    0.0000 C   0  0  0  0  0  0  0  0  0  0  0  0
    3.7934    0.2678    0.0000 C   0  0  0  0  0  0  0  0  0  0  0  0
    3.0790    1.5053    0.0000 C   0  0  0  0  0  0  0  0  0  0  0  0
    3.7934    1.0928    0.0000 C   0  0  0  0  0  0  0  0  0  0  0  0
    3.0790   -0.9697    0.0000 C   0  0  0  0  0  0  0  0  0  0  0  0
    4.5309    1.5339    0.0000 C   0  0  0  0  0  0  0  0  0  0  0  0
    4.5309   -0.1733    0.0000 C   0  0  0  0  0  0  0  0  0  0  0  0
    1.6500    1.5053    0.0000 C   0  0  0  0  0  0  0  0  0  0  0  0
    5.2784    1.1100    0.0000 C   0  0  0  0  0  0  0  0  0  0  0  0
    3.7934   -1.3822    0.0000 C   0  0  0  0  0  0  0  0  0  0  0  0
    2.3645   -1.3822    0.0000 C   0  0  0  0  0  0  0  0  0  0  0  0
    5.2784    0.2506    0.0000 C   0  0  0  0  0  0  0  0  0  0  0  0
    3.7934   -2.2072    0.0000 C   0  0  0  0  0  0  0  0  0  0  0  0
    2.3645   -2.2072    0.0000 C   0  0  0  0  0  0  0  0  0  0  0  0
    3.0790   -2.6197    0.0000 C   0  0  0  0  0  0  0  0  0  0  0  0
  1  4  1  0  0  0  0
  1  6  1  0  0  0  0
  1 11  1  0  0  0  0
  2  9  1  0  0  0  0
  3  4  1  0  0  0  0
  3  5  1  0  0  0  0
  3  8  1  0  0  0  0
  5  7  2  0  0  0  0
  5 10  1  0  0  0  0
  6  7  1  0  0  0  0
  7  9  1  0  0  0  0
  8 13  2  0  0  0  0
  8 14  1  0  0  0  0
  9 12  2  0  0  0  0
 10 15  2  0  0  0  0
 12 15  1  0  0  0  0
 13 16  1  0  0  0  0
 14 17  2  0  0  0  0
 16 18  2  0  0  0  0
 17 18  1  0  0  0  0
M  END
> <DRUGBANK_ID>
DB04821

> <DRUG_GROUPS>
withdrawn

> <GENERIC_NAME>
Nomifensine

> <SYNONYMS>
(+-)-nomifensin; (+-)-nomifensine; (+)-nomifensine; (+)-nomiphensine; (R)-1,2,3,4-Tetrahydro-2-methyl-4-phenyl-8-isoquinolinamine; 2-Methyl-4-phenyl-1,2,3,4-tetrahydro-8-isoquinolinamine; 8-Amino-1,2,3,4-tetrahydro-2-methyl-4-phenylisochinolin; 8-Amino-1,2,3,4-tetrahydro-2-methyl-4-phenylisoquinoline; 8-Amino-2-methyl-4-phenyl-1,2,3,4-tetrahydroisoquinoline; Nomifensin; Nomifensina [inn-spanish]; Nomifensinum [inn-latin]

> <BRANDS>
Linamiphen; Merital; Nomifenison

> <CHEMICAL_FORMULA>
C16H18N2

> <MOLECULAR_WEIGHT>
238.3275

> <EXACT_MASS>
238.146998586

> <IUPAC_NAME>
2-methyl-4-phenyl-1,2,3,4-tetrahydroisoquinolin-8-amine

> <INCHI_IDENTIFIER>
InChI=1S/C16H18N2/c1-18-10-14(12-6-3-2-4-7-12)13-8-5-9-16(17)15(13)11-18/h2-9,14H,10-11,17H2,1H3

> <INCHI_KEY>
InChIKey=XXPANQJNYNUNES-UHFFFAOYSA-N

> <SMILES>
CN1CC(C2=CC=CC=C2)C2=C(C1)C(N)=CC=C2

> <JCHEM_ACCEPTOR_COUNT>
2

> <JCHEM_DONOR_COUNT>
1

> <JCHEM_BASIC_PKA>
8.88

> <JCHEM_PHYSIOLOGICAL_CHARGE>
1

> <ALOGPS_LOGP>
2.94

> <JCHEM_LOGP>
2.62

> <ALOGPS_LOGS>
-2.9

> <JCHEM_POLARIZABILITY>
27.56

> <JCHEM_POLAR_SURFACE_AREA>
29.26

> <JCHEM_REFRACTIVITY>
77.18

> <JCHEM_ROTATABLE_BOND_COUNT>
1

> <ALOGPS_SOLUBILITY>
3.18e-01 g/l __ 

$$$$
DB04822
ChemmineR-0317140124XD

 24 24  0  0  0  0            999 V2000
    3.6020   -0.6188    0.0000 O   0  0  0  0  0  0  0  0  0  0  0  0
    2.1731   -0.6188    0.0000 O   0  0  0  0  0  0  0  0  0  0  0  0
    4.3166    1.4438    0.0000 O   0  0  0  0  0  0  0  0  0  0  0  0
    5.7455    3.0938    0.0000 N   0  0  0  0  0  0  0  0  0  0  0  0
    2.8876   -1.8563    0.0000 C   0  0  0  0  0  0  0  0  0  0  0  0
    3.7126   -1.8563    0.0000 C   0  0  0  0  0  0  0  0  0  0  0  0
    2.0625   -1.8563    0.0000 C   0  0  0  0  0  0  0  0  0  0  0  0
    2.8876   -2.6813    0.0000 C   0  0  0  0  0  0  0  0  0  0  0  0
    2.8876   -1.0313    0.0000 C   0  0  0  0  0  0  0  0  0  0  0  0
    4.1251   -1.1418    0.0000 C   0  0  0  0  0  0  0  0  0  0  0  0
    1.6500   -1.1418    0.0000 C   0  0  0  0  0  0  0  0  0  0  0  0
    3.6020   -3.0938    0.0000 C   0  0  0  0  0  0  0  0  0  0  0  0
    2.1731   -3.0938    0.0000 C   0  0  0  0  0  0  0  0  0  0  0  0
    3.6020    0.2063    0.0000 C   0  0  0  0  0  0  0  0  0  0  0  0
    3.6020   -3.9188    0.0000 C   0  0  0  0  0  0  0  0  0  0  0  0
    2.1731   -3.9188    0.0000 C   0  0  0  0  0  0  0  0  0  0  0  0
    5.0310    2.6813    0.0000 C   0  0  0  0  0  0  0  0  0  0  0  0
    4.3166    0.6188    0.0000 C   0  0  0  0  0  0  0  0  0  0  0  0
    5.0310    1.8563    0.0000 C   0  0  0  0  0  0  0  0  0  0  0  0
    2.8876   -4.3313    0.0000 C   0  0  0  0  0  0  0  0  0  0  0  0
    5.7455    3.9188    0.0000 C   0  0  0  0  0  0  0  0  0  0  0  0
    6.4600    2.6813    0.0000 C   0  0  0  0  0  0  0  0  0  0  0  0
    6.4600    4.3313    0.0000 C   0  0  0  0  0  0  0  0  0  0  0  0
    7.1745    3.0938    0.0000 C   0  0  0  0  0  0  0  0  0  0  0  0
  1  9  1  0  0  0  0
  1 14  1  0  0  0  0
  2  9  2  0  0  0  0
  3 18  1  0  0  0  0
  3 19  1  0  0  0  0
  4 17  1  0  0  0  0
  4 21  1  0  0  0  0
  4 22  1  0  0  0  0
  5  6  1  0  0  0  0
  5  7  1  0  0  0  0
  5  8  1  0  0  0  0
  5  9  1  0  0  0  0
  6 10  1  0  0  0  0
  7 11  1  0  0  0  0
  8 12  2  0  0  0  0
  8 13  1  0  0  0  0
 12 15  1  0  0  0  0
 13 16  2  0  0  0  0
 14 18  1  0  0  0  0
 15 20  2  0  0  0  0
 16 20  1  0  0  0  0
 17 19  1  0  0  0  0
 21 23  1  0  0  0  0
 22 24  1  0  0  0  0
M  END
> <DRUGBANK_ID>
DB04822

> <DRUG_GROUPS>
withdrawn

> <GENERIC_NAME>
Oxeladin

> <SYNONYMS>
2-(2-Diethylaminoethoxy)ethyl 2-ethyl-2-phenylbutyrate; Oxeladina [inn-spanish]; Oxeladine [inn-french]; Oxeladinum [inn-latin]

> <CHEMICAL_FORMULA>
C20H33NO3

> <MOLECULAR_WEIGHT>
335.4809

> <EXACT_MASS>
335.246043927

> <IUPAC_NAME>
2-[2-(diethylamino)ethoxy]ethyl 2-ethyl-2-phenylbutanoate

> <INCHI_IDENTIFIER>
InChI=1S/C20H33NO3/c1-5-20(6-2,18-12-10-9-11-13-18)19(22)24-17-16-23-15-14-21(7-3)8-4/h9-13H,5-8,14-17H2,1-4H3

> <INCHI_KEY>
InChIKey=IQADUMSPOQKAAO-UHFFFAOYSA-N

> <SMILES>
CCN(CC)CCOCCOC(=O)C(CC)(CC)C1=CC=CC=C1

> <JCHEM_ACCEPTOR_COUNT>
3

> <JCHEM_DONOR_COUNT>
0

> <JCHEM_BASIC_PKA>
9.41

> <JCHEM_PHYSIOLOGICAL_CHARGE>
1

> <ALOGPS_LOGP>
4.62

> <JCHEM_LOGP>
4.43

> <ALOGPS_LOGS>
-4.3

> <JCHEM_POLARIZABILITY>
39.35

> <JCHEM_POLAR_SURFACE_AREA>
38.77

> <JCHEM_REFRACTIVITY>
98.97

> <JCHEM_ROTATABLE_BOND_COUNT>
13

> <ALOGPS_SOLUBILITY>
1.58e-02 g/l __ 

$$$$
DB04823
ChemmineR-0317140124XD

 24 27  0  0  0  0            999 V2000
    5.1662   -1.2245    0.0000 O   0  0  0  0  0  0  0  0  0  0  0  0
    2.3154    2.3559    0.0000 O   0  0  0  0  0  0  0  0  0  0  0  0
    6.5328    1.3746    0.0000 O   0  0  0  0  0  0  0  0  0  0  0  0
    3.8597   -1.8884    0.0000 N   0  0  0  0  0  0  0  0  0  0  0  0
    3.8597   -0.5606    0.0000 C   0  0  0  0  0  0  0  0  0  0  0  0
    3.0790   -0.8120    0.0000 C   0  0  0  0  0  0  0  0  0  0  0  0
    4.3411   -1.2245    0.0000 C   0  0  0  0  0  0  0  0  0  0  0  0
    3.4736    0.1686    0.0000 C   0  0  0  0  0  0  0  0  0  0  0  0
    4.5279   -0.0768    0.0000 C   0  0  0  0  0  0  0  0  0  0  0  0
    3.0790   -1.6370    0.0000 C   0  0  0  0  0  0  0  0  0  0  0  0
    2.3645   -0.3995    0.0000 C   0  0  0  0  0  0  0  0  0  0  0  0
    2.3645   -2.0495    0.0000 C   0  0  0  0  0  0  0  0  0  0  0  0
    2.6491    0.1987    0.0000 C   0  0  0  0  0  0  0  0  0  0  0  0
    4.4431    0.7438    0.0000 C   0  0  0  0  0  0  0  0  0  0  0  0
    3.9120    0.8674    0.0000 C   0  0  0  0  0  0  0  0  0  0  0  0
    5.2810   -0.4137    0.0000 C   0  0  0  0  0  0  0  0  0  0  0  0
    1.6500   -0.8120    0.0000 C   0  0  0  0  0  0  0  0  0  0  0  0
    1.6500   -1.6370    0.0000 C   0  0  0  0  0  0  0  0  0  0  0  0
    2.2631    0.9279    0.0000 C   0  0  0  0  0  0  0  0  0  0  0  0
    5.1114    1.2276    0.0000 C   0  0  0  0  0  0  0  0  0  0  0  0
    3.5259    1.5966    0.0000 C   0  0  0  0  0  0  0  0  0  0  0  0
    5.9493    0.0701    0.0000 C   0  0  0  0  0  0  0  0  0  0  0  0
    2.7014    1.6268    0.0000 C   0  0  0  0  0  0  0  0  0  0  0  0
    5.8645    0.8908    0.0000 C   0  0  0  0  0  0  0  0  0  0  0  0
  1  7  2  0  0  0  0
  2 23  1  0  0  0  0
  3 24  1  0  0  0  0
  4  7  1  0  0  0  0
  4 10  1  0  0  0  0
  5  6  1  0  0  0  0
  5  7  1  0  0  0  0
  5  8  1  0  0  0  0
  5  9  1  0  0  0  0
  6 10  1  0  0  0  0
  6 11  2  0  0  0  0
  8 13  2  0  0  0  0
  8 15  1  0  0  0  0
  9 14  2  0  0  0  0
  9 16  1  0  0  0  0
 10 12  2  0  0  0  0
 11 17  1  0  0  0  0
 12 18  1  0  0  0  0
 13 19  1  0  0  0  0
 14 20  1  0  0  0  0
 15 21  2  0  0  0  0
 16 22  2  0  0  0  0
 17 18  2  0  0  0  0
 19 23  2  0  0  0  0
 20 24  2  0  0  0  0
 21 23  1  0  0  0  0
 22 24  1  0  0  0  0
M  END
> <DRUGBANK_ID>
DB04823

> <DRUG_GROUPS>
withdrawn

> <GENERIC_NAME>
Oxyphenisatin

> <SYNONYMS>
1,3-Dihydro-3,3-bis(4-hydroxyphenyl)-2H-indol-2-one; 3,3-Bis(4-hydroxyphenyl)-oxindole; 3,3-Bis(4-hydroxyphenyl)oxindole; 3,3-Bis(p-hydroxyphenyl)-2-indolinone; 3,3-Bis(p-hydroxyphenyl)oxindole; 4,4'-Dihydroxydiphenylisatin; Dihydroxyphenoloxindol; Oxifenisatina [inn-spanish]; Oxiphenisatinum; Oxyphenisatine; Oxyphenisatinum [inn-latin]

> <BRANDS>
Critex; Diphenolisatin; Hoscolax; Isatinbisphenol; Isolax; Lavema; Neodrast; Normalax; Nourilax; Phenolisatin; Propellax; Recolon; Veripaque

> <CHEMICAL_FORMULA>
C20H15NO3

> <MOLECULAR_WEIGHT>
317.338

> <EXACT_MASS>
317.105193351

> <IUPAC_NAME>
3,3-bis(4-hydroxyphenyl)-2,3-dihydro-1H-indol-2-one

> <INCHI_IDENTIFIER>
InChI=1S/C20H15NO3/c22-15-9-5-13(6-10-15)20(14-7-11-16(23)12-8-14)17-3-1-2-4-18(17)21-19(20)24/h1-12,22-23H,(H,21,24)

> <INCHI_KEY>
InChIKey=SJDACOMXKWHBOW-UHFFFAOYSA-N

> <SMILES>
OC1=CC=C(C=C1)C1(C(=O)NC2=CC=CC=C12)C1=CC=C(O)C=C1

> <JCHEM_ACCEPTOR_COUNT>
3

> <JCHEM_DONOR_COUNT>
3

> <JCHEM_ACIDIC_PKA>
9.18

> <JCHEM_BASIC_PKA>
-6

> <JCHEM_PHYSIOLOGICAL_CHARGE>
0

> <ALOGPS_LOGP>
3.78

> <JCHEM_LOGP>
3.83

> <ALOGPS_LOGS>
-4.4

> <JCHEM_POLARIZABILITY>
33.07

> <JCHEM_POLAR_SURFACE_AREA>
69.56

> <JCHEM_REFRACTIVITY>
93.69

> <JCHEM_ROTATABLE_BOND_COUNT>
2

> <ALOGPS_SOLUBILITY>
1.25e-02 g/l __ 

$$$$
DB04824
ChemmineR-0317140124XD

 24 27  0  0  0  0            999 V2000
    4.3411   -1.2316    0.0000 O   0  0  0  0  0  0  0  0  0  0  0  0
    4.1159   -2.6797    0.0000 O   0  0  0  0  0  0  0  0  0  0  0  0
    7.1421   -0.2284    0.0000 O   0  0  0  0  0  0  0  0  0  0  0  0
    2.8453    2.5725    0.0000 O   0  0  0  0  0  0  0  0  0  0  0  0
    3.8596   -0.5678    0.0000 C   0  0  0  0  0  0  0  0  0  0  0  0
    3.0790   -0.8191    0.0000 C   0  0  0  0  0  0  0  0  0  0  0  0
    4.6802   -0.4830    0.0000 C   0  0  0  0  0  0  0  0  0  0  0  0
    3.6060    0.2173    0.0000 C   0  0  0  0  0  0  0  0  0  0  0  0
    3.0790   -1.6441    0.0000 C   0  0  0  0  0  0  0  0  0  0  0  0
    3.8596   -1.8955    0.0000 C   0  0  0  0  0  0  0  0  0  0  0  0
    2.3645   -0.4066    0.0000 C   0  0  0  0  0  0  0  0  0  0  0  0
    5.1640   -1.1512    0.0000 C   0  0  0  0  0  0  0  0  0  0  0  0
    4.1591    0.8295    0.0000 C   0  0  0  0  0  0  0  0  0  0  0  0
    5.0171    0.2702    0.0000 C   0  0  0  0  0  0  0  0  0  0  0  0
    2.7993    0.3902    0.0000 C   0  0  0  0  0  0  0  0  0  0  0  0
    2.3645   -2.0566    0.0000 C   0  0  0  0  0  0  0  0  0  0  0  0
    1.6500   -0.8191    0.0000 C   0  0  0  0  0  0  0  0  0  0  0  0
    1.6500   -1.6441    0.0000 C   0  0  0  0  0  0  0  0  0  0  0  0
    5.9846   -1.0664    0.0000 C   0  0  0  0  0  0  0  0  0  0  0  0
    3.9055    1.6145    0.0000 C   0  0  0  0  0  0  0  0  0  0  0  0
    5.8377    0.3550    0.0000 C   0  0  0  0  0  0  0  0  0  0  0  0
    2.5457    1.1753    0.0000 C   0  0  0  0  0  0  0  0  0  0  0  0
    6.3215   -0.3133    0.0000 C   0  0  0  0  0  0  0  0  0  0  0  0
    3.0989    1.7874    0.0000 C   0  0  0  0  0  0  0  0  0  0  0  0
  1  5  1  0  0  0  0
  1 10  1  0  0  0  0
  2 10  2  0  0  0  0
  3 23  1  0  0  0  0
  4 24  1  0  0  0  0
  5  6  1  0  0  0  0
  5  7  1  0  0  0  0
  5  8  1  0  0  0  0
  6  9  1  0  0  0  0
  6 11  2  0  0  0  0
  7 12  2  0  0  0  0
  7 14  1  0  0  0  0
  8 13  2  0  0  0  0
  8 15  1  0  0  0  0
  9 10  1  0  0  0  0
  9 16  2  0  0  0  0
 11 17  1  0  0  0  0
 12 19  1  0  0  0  0
 13 20  1  0  0  0  0
 14 21  2  0  0  0  0
 15 22  2  0  0  0  0
 16 18  1  0  0  0  0
 17 18  2  0  0  0  0
 19 23  2  0  0  0  0
 20 24  2  0  0  0  0
 21 23  1  0  0  0  0
 22 24  1  0  0  0  0
M  END
> <DRUGBANK_ID>
DB04824

> <DRUG_GROUPS>
withdrawn

> <GENERIC_NAME>
Phenolphthalein

> <SYNONYMS>
3,3-Bis(4-hydroxyphenyl)-1(3H)-isobenzofuranone; 3,3-Bis(4-hydroxyphenyl)-2-benzofuran-1(3H)-one; 3,3-Bis(4-hydroxyphenyl)phthalide; 3,3-Bis(p-hydroxyphenyl)phthalide; Alpha-di(p-hydroxyphenyl)phthalide; Dihydroxyphthalophenone; Fenolftalein [czech]; Fenolftaleina [inn-spanish]; Phenolphtaleine [inn-french]; Phenolphthaleinum [inn-latin]; Phenophthalein

> <BRANDS>
Agoral; Alophen; Chocolax; Colax; Correctol; Doxan; Doxidan; Espotabs; Euchessina; Evac-q-kit; Evac-q-kwik; Evac-q-tabs; Evac-u-gen; Evac-v-lax; Ex-lax; Feen-a-mint gum; Feen-a-mint laxative mints; Femilax; Koprol; Lax-pills; Laxcaps; Laxin; Laxogen; LILO; Medilax; Phenolax; Phillips gelcaps; Phthalimetten; Phthalin; Prulet; Purga; Purgen; Purgophen; Spulmako-lax; Trilax

> <CHEMICAL_FORMULA>
C20H14O4

> <MOLECULAR_WEIGHT>
318.3228

> <EXACT_MASS>
318.089208936

> <IUPAC_NAME>
3,3-bis(4-hydroxyphenyl)-1,3-dihydro-2-benzofuran-1-one

> <INCHI_IDENTIFIER>
InChI=1S/C20H14O4/c21-15-9-5-13(6-10-15)20(14-7-11-16(22)12-8-14)18-4-2-1-3-17(18)19(23)24-20/h1-12,21-22H

> <INCHI_KEY>
InChIKey=KJFMBFZCATUALV-UHFFFAOYSA-N

> <SMILES>
OC1=CC=C(C=C1)C1(OC(=O)C2=CC=CC=C12)C1=CC=C(O)C=C1

> <JCHEM_ACCEPTOR_COUNT>
3

> <JCHEM_DONOR_COUNT>
2

> <JCHEM_ACIDIC_PKA>
9.16

> <JCHEM_BASIC_PKA>
-6

> <JCHEM_PHYSIOLOGICAL_CHARGE>
0

> <ALOGPS_LOGP>
4.41

> <JCHEM_LOGP>
4.35

> <ALOGPS_LOGS>
-4.5

> <JCHEM_POLARIZABILITY>
32.65

> <JCHEM_POLAR_SURFACE_AREA>
66.76

> <JCHEM_REFRACTIVITY>
91.04

> <JCHEM_ROTATABLE_BOND_COUNT>
2

> <ALOGPS_SOLUBILITY>
9.92e-03 g/l __ 

$$$$
DB04825
ChemmineR-0317140124XD

 25 27  0  0  1  0            999 V2000
    3.0791    0.2063    0.0000 N   0  0  0  0  0  0  0  0  0  0  0  0
    4.5080   -1.4438    0.0000 C   0  0  0  0  0  0  0  0  0  0  0  0
    3.7935   -1.0313    0.0000 C   0  0  0  0  0  0  0  0  0  0  0  0
    3.7935   -0.2063    0.0000 C   0  0  0  0  0  0  0  0  0  0  0  0
    3.0791    1.0313    0.0000 C   0  0  0  0  0  0  0  0  0  0  0  0
    5.2224   -1.0313    0.0000 C   0  0  0  0  0  0  0  0  0  0  0  0
    4.5080   -2.2688    0.0000 C   0  0  0  0  0  0  0  0  0  0  0  0
    2.3645    1.4438    0.0000 C   0  0  0  0  0  0  0  0  0  0  0  0
    3.7935    1.4438    0.0000 C   0  0  0  0  0  0  0  0  0  0  0  0
    2.3645    2.2688    0.0000 C   0  0  0  0  0  0  0  0  0  0  0  0
    5.9370   -1.4438    0.0000 C   0  0  0  0  0  0  0  0  0  0  0  0
    5.2224   -2.6813    0.0000 C   0  0  0  0  0  0  0  0  0  0  0  0
    5.2224   -0.2063    0.0000 C   0  0  0  0  0  0  0  0  0  0  0  0
    3.7935   -2.6813    0.0000 C   0  0  0  0  0  0  0  0  0  0  0  0
    1.6500    2.6813    0.0000 C   0  0  0  0  0  0  0  0  0  0  0  0
    3.0791    2.6813    0.0000 C   0  0  0  0  0  0  0  0  0  0  0  0
    6.6515   -1.0313    0.0000 C   0  0  0  0  0  0  0  0  0  0  0  0
    5.2224   -3.5063    0.0000 C   0  0  0  0  0  0  0  0  0  0  0  0
    5.9370    0.2063    0.0000 C   0  0  0  0  0  0  0  0  0  0  0  0
    3.7935   -3.5063    0.0000 C   0  0  0  0  0  0  0  0  0  0  0  0
    6.6515   -0.2063    0.0000 C   0  0  0  0  0  0  0  0  0  0  0  0
    4.5080   -3.9188    0.0000 C   0  0  0  0  0  0  0  0  0  0  0  0
    1.6500    3.5063    0.0000 C   0  0  0  0  0  0  0  0  0  0  0  0
    3.0791    3.5063    0.0000 C   0  0  0  0  0  0  0  0  0  0  0  0
    2.3645    3.9188    0.0000 C   0  0  0  0  0  0  0  0  0  0  0  0
  1  4  1  0  0  0  0
  1  5  1  0  0  0  0
  2  3  1  0  0  0  0
  2  6  1  0  0  0  0
  2  7  1  0  0  0  0
  3  4  1  0  0  0  0
  5  8  1  0  0  0  0
  5  9  1  0  0  0  0
  6 11  2  0  0  0  0
  6 13  1  0  0  0  0
  7 12  2  0  0  0  0
  7 14  1  0  0  0  0
  8 10  1  0  0  0  0
 10 15  2  0  0  0  0
 10 16  1  0  0  0  0
 11 17  1  0  0  0  0
 12 18  1  0  0  0  0
 13 19  2  0  0  0  0
 14 20  2  0  0  0  0
 15 23  1  0  0  0  0
 16 24  2  0  0  0  0
 17 21  2  0  0  0  0
 18 22  2  0  0  0  0
 19 21  1  0  0  0  0
 20 22  1  0  0  0  0
 23 25  2  0  0  0  0
 24 25  1  0  0  0  0
M  END
> <DRUGBANK_ID>
DB04825

> <DRUG_GROUPS>
withdrawn

> <GENERIC_NAME>
Prenylamine

> <SYNONYMS>
1-Phenyl-2-(1',1'-diphenylpropyl-3'-amino)propane; DL-prenylamine; N-(1-Methyl-2-phenylethyl)-3,3-diphenyl-1-propanamine; N-(1-Methyl-2-phenylethyl)-gamma-phenylbenzenepropanamine; N-(3,3-Diphenylpropyl)-alpha-methylphenaethylamin [German]; N-(3,3-Diphenylpropyl)-alpha-methylphenethylamine; N-(3'-Phenyl-2-propyl)-1,1-diphenyl-3-propyloamine; Prenilamina [inn-spanish]; Prenylaminum [inn-latin]

> <BRANDS>
Bismethin; Carditin; Corontin; Corpax; Elecor; Falliocor; Hostaginan; Segontin; Synadrin; Valecor

> <CHEMICAL_FORMULA>
C24H27N

> <MOLECULAR_WEIGHT>
329.4779

> <EXACT_MASS>
329.214349869

> <IUPAC_NAME>
(3,3-diphenylpropyl)(1-phenylpropan-2-yl)amine

> <INCHI_IDENTIFIER>
InChI=1S/C24H27N/c1-20(19-21-11-5-2-6-12-21)25-18-17-24(22-13-7-3-8-14-22)23-15-9-4-10-16-23/h2-16,20,24-25H,17-19H2,1H3

> <INCHI_KEY>
InChIKey=IFFPICMESYHZPQ-UHFFFAOYSA-N

> <SMILES>
CC(CC1=CC=CC=C1)NCCC(C1=CC=CC=C1)C1=CC=CC=C1

> <JCHEM_ACCEPTOR_COUNT>
1

> <JCHEM_DONOR_COUNT>
1

> <JCHEM_BASIC_PKA>
10.48

> <JCHEM_PHYSIOLOGICAL_CHARGE>
1

> <ALOGPS_LOGP>
5.89

> <JCHEM_LOGP>
6.12

> <ALOGPS_LOGS>
-7

> <JCHEM_POLARIZABILITY>
39.76

> <JCHEM_POLAR_SURFACE_AREA>
12.03

> <JCHEM_REFRACTIVITY>
107.09

> <JCHEM_ROTATABLE_BOND_COUNT>
8

> <ALOGPS_SOLUBILITY>
3.54e-05 g/l __ 

$$$$
DB04826
ChemmineR-0317140124XD

 20 22  0  0  1  0            999 V2000
    2.9849    2.1190    0.0000 S   0  0  0  0  0  0  0  0  0  0  0  0
    3.0319   -2.0786    0.0000 N   0  0  0  0  0  0  0  0  0  0  0  0
    3.0319    0.3965    0.0000 N   0  0  0  0  0  0  0  0  0  0  0  0
    3.0319   -0.4285    0.0000 C   0  0  0  0  0  0  0  0  0  0  0  0
    2.3175   -0.8410    0.0000 C   0  0  0  0  0  0  0  0  0  0  0  0
    3.7465   -0.8410    0.0000 C   0  0  0  0  0  0  0  0  0  0  0  0
    2.3175   -1.6660    0.0000 C   0  0  0  0  0  0  0  0  0  0  0  0
    3.7465   -1.6660    0.0000 C   0  0  0  0  0  0  0  0  0  0  0  0
    2.3175    0.8090    0.0000 C   0  0  0  0  0  0  0  0  0  0  0  0
    3.7465    0.8090    0.0000 C   0  0  0  0  0  0  0  0  0  0  0  0
    3.0319   -2.9036    0.0000 C   0  0  0  0  0  0  0  0  0  0  0  0
    2.3175    1.6340    0.0000 C   0  0  0  0  0  0  0  0  0  0  0  0
    4.4610    0.3965    0.0000 C   0  0  0  0  0  0  0  0  0  0  0  0
    3.7465    1.6340    0.0000 C   0  0  0  0  0  0  0  0  0  0  0  0
    1.6500    2.1190    0.0000 C   0  0  0  0  0  0  0  0  0  0  0  0
    5.1754    0.8090    0.0000 C   0  0  0  0  0  0  0  0  0  0  0  0
    4.4610    2.0465    0.0000 C   0  0  0  0  0  0  0  0  0  0  0  0
    5.1754    1.6340    0.0000 C   0  0  0  0  0  0  0  0  0  0  0  0
    1.9050    2.9036    0.0000 C   0  0  0  0  0  0  0  0  0  0  0  0
    2.7300    2.9036    0.0000 C   0  0  0  0  0  0  0  0  0  0  0  0
  1 12  1  0  0  0  0
  1 20  1  0  0  0  0
  2  7  1  0  0  0  0
  2  8  1  0  0  0  0
  2 11  1  0  0  0  0
  3  4  1  0  0  0  0
  3  9  1  0  0  0  0
  3 10  1  0  0  0  0
  4  5  1  0  0  0  0
  4  6  1  0  0  0  0
  5  7  1  0  0  0  0
  6  8  1  0  0  0  0
  9 12  1  0  0  0  0
 10 13  2  0  0  0  0
 10 14  1  0  0  0  0
 12 15  2  0  0  0  0
 13 16  1  0  0  0  0
 14 17  2  0  0  0  0
 15 19  1  0  0  0  0
 16 18  2  0  0  0  0
 17 18  1  0  0  0  0
 19 20  2  0  0  0  0
M  END
> <DRUGBANK_ID>
DB04826

> <DRUG_GROUPS>
withdrawn

> <GENERIC_NAME>
Thenalidine

> <SYNONYMS>
1-Methyl-4-amino-N-phenyl-N-(2-thenyl)piperidine; 1-Methyl-4-N-2-thenylanilinopiperidine; Tenalidina [inn-spanish]; Thenaldine; Thenalidinum [inn-latin]; Thenophenopiperidine

> <BRANDS>
Sanbosten; Sandostene

> <CHEMICAL_FORMULA>
C17H22N2S

> <MOLECULAR_WEIGHT>
286.435

> <EXACT_MASS>
286.150369404

> <IUPAC_NAME>
1-methyl-N-phenyl-N-(thiophen-2-ylmethyl)piperidin-4-amine

> <INCHI_IDENTIFIER>
InChI=1S/C17H22N2S/c1-18-11-9-16(10-12-18)19(14-17-8-5-13-20-17)15-6-3-2-4-7-15/h2-8,13,16H,9-12,14H2,1H3

> <INCHI_KEY>
InChIKey=KLOHYVOVXOUKQI-UHFFFAOYSA-N

> <SMILES>
CN1CCC(CC1)N(CC1=CC=CS1)C1=CC=CC=C1

> <JCHEM_ACCEPTOR_COUNT>
2

> <JCHEM_DONOR_COUNT>
0

> <JCHEM_BASIC_PKA>
8.69

> <JCHEM_PHYSIOLOGICAL_CHARGE>
1

> <ALOGPS_LOGP>
4.47

> <JCHEM_LOGP>
3.75

> <ALOGPS_LOGS>
-3.5

> <JCHEM_POLARIZABILITY>
32.89

> <JCHEM_POLAR_SURFACE_AREA>
6.48

> <JCHEM_REFRACTIVITY>
87.44

> <JCHEM_ROTATABLE_BOND_COUNT>
4

> <ALOGPS_SOLUBILITY>
8.83e-02 g/l __ 

$$$$
DB04827
ChemmineR-0317140124XD

  6  5  0  0  0  0            999 V2000
    3.0791    0.3630    0.0000 O   0  0  0  0  0  0  0  0  0  0  0  0
    3.7935   -0.8745    0.0000 O   0  0  0  0  0  0  0  0  0  0  0  0
    4.5080    0.3630    0.0000 N   0  0  0  0  0  0  0  0  0  0  0  0
    2.3645   -0.0495    0.0000 C   0  0  0  0  0  0  0  0  0  0  0  0
    1.6500    0.3630    0.0000 C   0  0  0  0  0  0  0  0  0  0  0  0
    3.7935   -0.0495    0.0000 C   0  0  0  0  0  0  0  0  0  0  0  0
  1  4  1  0  0  0  0
  1  6  1  0  0  0  0
  2  6  2  0  0  0  0
  3  6  1  0  0  0  0
  4  5  1  0  0  0  0
M  END
> <DRUGBANK_ID>
DB04827

> <DRUG_GROUPS>
withdrawn

> <GENERIC_NAME>
Ethyl carbamate

> <SYNONYMS>
Aethylcarbamat [german]; Aethylurethan [german]; Carbamic acid ethyl ester; Carbamidsaeure-aethylester [german]; Estane 5703; Ethyl ester of carbamic acid; Ethyl urethan; Ethyl urethane; Ethylcarbamate; Ethylester kyseliny karbaminove [czech]; Ethylurethan; Ethylurethane; O-ethyl urethane; O-ethylurethane; Uretan; Uretan etylowy [polish]; Uretano [dcit]; Urethan; Urethane; Urethanum [inn-latin]

> <BRANDS>
Leucethane; Leucothane; Pracarbamin; Pracarbamine

> <CHEMICAL_FORMULA>
C3H7NO2

> <MOLECULAR_WEIGHT>
89.0932

> <EXACT_MASS>
89.047678473

> <IUPAC_NAME>
ethyl carbamate

> <INCHI_IDENTIFIER>
InChI=1S/C3H7NO2/c1-2-6-3(4)5/h2H2,1H3,(H2,4,5)

> <INCHI_KEY>
InChIKey=JOYRKODLDBILNP-UHFFFAOYSA-N

> <SMILES>
CCOC(N)=O

> <JCHEM_ACCEPTOR_COUNT>
1

> <JCHEM_DONOR_COUNT>
1

> <JCHEM_ACIDIC_PKA>
15.47

> <JCHEM_PHYSIOLOGICAL_CHARGE>
0

> <ALOGPS_LOGP>
-0.14

> <JCHEM_LOGP>
-0.054

> <ALOGPS_LOGS>
0.62

> <JCHEM_POLARIZABILITY>
8.64

> <JCHEM_POLAR_SURFACE_AREA>
52.32

> <JCHEM_REFRACTIVITY>
20.84

> <JCHEM_ROTATABLE_BOND_COUNT>
2

> <ALOGPS_SOLUBILITY>
3.71e+02 g/l __ 

$$$$
DB04828
ChemmineR-0317140124XD

 20 21  0  0  0  0            999 V2000
    2.3645   -3.1758    0.0000 Cl   0  0  0  0  0  0  0  0  0  0  0  0
    1.6500    0.5368    0.0000 O    0  0  0  0  0  0  0  0  0  0  0  0
    5.4638    3.1223    0.0000 O    0  0  0  0  0  0  0  0  0  0  0  0
    5.6132    1.7013    0.0000 O    0  0  0  0  0  0  0  0  0  0  0  0
    3.1652    1.3572    0.0000 N    0  0  0  0  0  0  0  0  0  0  0  0
    3.0790    0.5368    0.0000 C    0  0  0  0  0  0  0  0  0  0  0  0
    3.9722    1.5287    0.0000 C    0  0  0  0  0  0  0  0  0  0  0  0
    3.8327    0.2011    0.0000 C    0  0  0  0  0  0  0  0  0  0  0  0
    4.3847    0.8143    0.0000 C    0  0  0  0  0  0  0  0  0  0  0  0
    4.3078    2.2824    0.0000 C    0  0  0  0  0  0  0  0  0  0  0  0
    2.3645    0.1242    0.0000 C    0  0  0  0  0  0  0  0  0  0  0  0
    2.5521    1.9092    0.0000 C    0  0  0  0  0  0  0  0  0  0  0  0
    4.0042   -0.6058    0.0000 C    0  0  0  0  0  0  0  0  0  0  0  0
    2.3645   -0.7008    0.0000 C    0  0  0  0  0  0  0  0  0  0  0  0
    5.1283    2.3687    0.0000 C    0  0  0  0  0  0  0  0  0  0  0  0
    3.0790   -1.1133    0.0000 C    0  0  0  0  0  0  0  0  0  0  0  0
    1.6500   -1.1133    0.0000 C    0  0  0  0  0  0  0  0  0  0  0  0
    3.0790   -1.9383    0.0000 C    0  0  0  0  0  0  0  0  0  0  0  0
    1.6500   -1.9383    0.0000 C    0  0  0  0  0  0  0  0  0  0  0  0
    2.3645   -2.3508    0.0000 C    0  0  0  0  0  0  0  0  0  0  0  0
  1 20  1  0  0  0  0
  2 11  2  0  0  0  0
  3 15  1  0  0  0  0
  4 15  2  0  0  0  0
  5  6  1  0  0  0  0
  5  7  1  0  0  0  0
  5 12  1  0  0  0  0
  6  8  2  0  0  0  0
  6 11  1  0  0  0  0
  7  9  2  0  0  0  0
  7 10  1  0  0  0  0
  8  9  1  0  0  0  0
  8 13  1  0  0  0  0
 10 15  1  0  0  0  0
 11 14  1  0  0  0  0
 14 16  2  0  0  0  0
 14 17  1  0  0  0  0
 16 18  1  0  0  0  0
 17 19  2  0  0  0  0
 18 20  2  0  0  0  0
 19 20  1  0  0  0  0
M  END
> <DRUGBANK_ID>
DB04828

> <DRUG_GROUPS>
withdrawn

> <GENERIC_NAME>
Zomepirac

> <SYNONYMS>
5-(4-Chlorobenzoyl)-1,4-dimethyl-1H-pyrrole-2-acetic acid; Zomepirac sodium; Zomepiracum [inn-latin]

> <CHEMICAL_FORMULA>
C15H14ClNO3

> <MOLECULAR_WEIGHT>
291.73

> <EXACT_MASS>
291.066221026

> <IUPAC_NAME>
2-{5-[(4-chlorophenyl)carbonyl]-1,4-dimethyl-1H-pyrrol-2-yl}acetic acid

> <INCHI_IDENTIFIER>
InChI=1S/C15H14ClNO3/c1-9-7-12(8-13(18)19)17(2)14(9)15(20)10-3-5-11(16)6-4-10/h3-7H,8H2,1-2H3,(H,18,19)

> <INCHI_KEY>
InChIKey=ZXVNMYWKKDOREA-UHFFFAOYSA-N

> <SMILES>
CN1C(CC(O)=O)=CC(C)=C1C(=O)C1=CC=C(Cl)C=C1

> <JCHEM_ACCEPTOR_COUNT>
3

> <JCHEM_DONOR_COUNT>
1

> <JCHEM_ACIDIC_PKA>
3.86

> <JCHEM_BASIC_PKA>
-7.8

> <JCHEM_PHYSIOLOGICAL_CHARGE>
-1

> <ALOGPS_LOGP>
3.37

> <JCHEM_LOGP>
3.33

> <ALOGPS_LOGS>
-4

> <JCHEM_POLARIZABILITY>
29.68

> <JCHEM_POLAR_SURFACE_AREA>
59.3

> <JCHEM_REFRACTIVITY>
77.2

> <JCHEM_ROTATABLE_BOND_COUNT>
4

> <ALOGPS_SOLUBILITY>
2.60e-02 g/l __ 

$$$$
DB04829
ChemmineR-0317140124XD

 25 28  0  0  1  0            999 V2000
    1.6596    0.6794    0.0000 O   0  0  0  0  0  0  0  0  0  0  0  0
    4.5735    0.6791    0.0000 N   0  0  0  0  0  0  0  0  0  0  0  0
    5.5486   -2.7169    0.0000 N   0  0  0  0  0  0  0  0  0  0  0  0
    2.3692    1.9196    0.0000 N   0  0  0  0  0  0  0  0  0  0  0  0
    4.5603   -0.1801    0.0000 C   0  0  1  0  0  0  0  0  0  0  0  0
    3.8458   -0.5926    0.0000 C   0  0  0  0  0  0  0  0  0  0  0  0
    5.2748   -0.5926    0.0000 C   0  0  0  0  0  0  0  0  0  0  0  0
    3.0885    0.6848    0.0000 C   0  0  1  0  0  0  0  0  0  0  0  0
    3.8327    1.1146    0.0000 C   0  0  0  0  0  0  0  0  0  0  0  0
    5.2748   -1.4176    0.0000 C   0  0  0  0  0  0  0  0  0  0  0  0
    3.8458   -1.4176    0.0000 C   0  0  0  0  0  0  0  0  0  0  0  0
    4.5603   -1.8301    0.0000 C   0  0  0  0  0  0  0  0  0  0  0  0
    3.0951   -0.1745    0.0000 C   0  0  0  0  0  0  0  0  0  0  0  0
    4.5735   -2.6893    0.0000 C   0  0  0  0  0  0  0  0  0  0  0  0
    5.2928    1.0834    0.0000 C   0  0  0  0  0  0  0  0  0  0  0  0
    2.3724    1.0946    0.0000 C   0  0  0  0  0  0  0  0  0  0  0  0
    5.8828   -1.9679    0.0000 C   0  0  0  0  0  0  0  0  0  0  0  0
    3.0951   -1.8358    0.0000 C   0  0  0  0  0  0  0  0  0  0  0  0
    3.8327   -3.1248    0.0000 C   0  0  0  0  0  0  0  0  0  0  0  0
    3.0885   -2.6951    0.0000 C   0  0  0  0  0  0  0  0  0  0  0  0
    3.0821    2.3348    0.0000 C   0  0  0  0  0  0  0  0  0  0  0  0
    1.6532    2.3293    0.0000 C   0  0  0  0  0  0  0  0  0  0  0  0
    3.0789    3.1598    0.0000 C   0  0  0  0  0  0  0  0  0  0  0  0
    1.6500    3.1543    0.0000 C   0  0  0  0  0  0  0  0  0  0  0  0
    5.1344    0.1454    0.0000 H   0  0  0  0  0  0  0  0  0  0  0  0
  1 16  2  0  0  0  0
  2  5  1  0  0  0  0
  2  9  1  0  0  0  0
  2 15  1  0  0  0  0
  3 14  1  0  0  0  0
  3 17  1  0  0  0  0
  4 16  1  0  0  0  0
  4 21  1  0  0  0  0
  4 22  1  0  0  0  0
  5  6  1  0  0  0  0
  5  7  1  0  0  0  0
  5 25  1  1  0  0  0
  6 11  1  0  0  0  0
  6 13  2  0  0  0  0
  7 10  1  0  0  0  0
  8  9  1  0  0  0  0
  8 13  1  0  0  0  0
  8 16  1  1  0  0  0
 10 12  1  0  0  0  0
 10 17  2  0  0  0  0
 11 12  2  0  0  0  0
 11 18  1  0  0  0  0
 12 14  1  0  0  0  0
 14 19  2  0  0  0  0
 18 20  2  0  0  0  0
 19 20  1  0  0  0  0
 21 23  1  0  0  0  0
 22 24  1  0  0  0  0
M  END
> <DRUGBANK_ID>
DB04829

> <DRUG_GROUPS>
illicit; withdrawn

> <GENERIC_NAME>
Lysergic Acid Diethylamide

> <SYNONYMS>
(+)-LSD; (+)-lysergic acid diethylamide; 9,10-Didehydro-N,N-diethyl-6-methylergoline-8b-carboxamide; Acid; Barrels; Bart simpson; Bartman; Beast; Big f; Blotter acid; Blue acid; Blue cheer; Blue mist; Blue star; Brown dots; California sunshine; Cherry top; Chief; Chocolate chips; Clearlight; Coffeinum; Contact lens; Cubes; Cupcakes; D-LSD; D-LSD-25; D-lysergic acid dethylamide; D-lysergic acid diethylamide; D-lysergic acid n,n-diethylamide; Delysid; Dextrolysergic acid diethylamide; Diethylamid kyseliny lysergove [czech]; Domes; Ergine; Fifty; Flats; Frogs; Gelatin chips; Greenies; Heavenly blue; LSD; LSD-25; Lucy in the sky with diamonds; Lysergamid; Lysergamide; Lysergaure diethylamid; Lysergic acid amide; Lysergic acid diethylamide-25; Lysergide; Lysergidum [inn-latin]; Mean green; Mellow yellow; Microdots; n,n-diethyl-(+)-lysergamide; N,N-Diethyl-6-methyl-9,10-didehydroergoline-8-carboxamide; N,n-diethyl-d-lysergamide; N,n-diethyllysergamide; Orange mushroom; Orange sunshine; Orange wedges; Owsley; Paper acid; Pearly gates; Purple haze; Purple microdot; Royal blue; Scapes; Spoonies; Strawberry fields; Sugar; Sugar lump; Sunshine; TABS; The hawk; Trippers; Ubergluben; Wedding bells; Wedges; White light; Window pane; Yellows; ZEN

> <CHEMICAL_FORMULA>
C20H25N3O

> <MOLECULAR_WEIGHT>
323.432

> <EXACT_MASS>
323.199762437

> <IUPAC_NAME>
(4R,7R)-N,N-diethyl-6-methyl-6,11-diazatetracyclo[7.6.1.0^{2,7}.0^{12,16}]hexadeca-1(16),2,9,12,14-pentaene-4-carboxamide

> <INCHI_IDENTIFIER>
InChI=1S/C20H25N3O/c1-4-23(5-2)20(24)14-9-16-15-7-6-8-17-19(15)13(11-21-17)10-18(16)22(3)12-14/h6-9,11,14,18,21H,4-5,10,12H2,1-3H3/t14-,18-/m1/s1

> <INCHI_KEY>
InChIKey=VAYOSLLFUXYJDT-RDTXWAMCSA-N

> <SMILES>
[H][C@@]12CC3=CNC4=CC=CC(=C34)C1=C[C@H](CN2C)C(=O)N(CC)CC

> <JCHEM_ACCEPTOR_COUNT>
2

> <JCHEM_DONOR_COUNT>
1

> <JCHEM_ACIDIC_PKA>
17.02

> <JCHEM_BASIC_PKA>
7.98

> <JCHEM_PHYSIOLOGICAL_CHARGE>
1

> <ALOGPS_LOGP>
3.3

> <JCHEM_LOGP>
2.28

> <ALOGPS_LOGS>
-3.1

> <JCHEM_POLARIZABILITY>
37.54

> <JCHEM_POLAR_SURFACE_AREA>
39.34

> <JCHEM_REFRACTIVITY>
98.73

> <JCHEM_ROTATABLE_BOND_COUNT>
3

> <ALOGPS_SOLUBILITY>
2.70e-01 g/l __ 

$$$$
DB04830
ChemmineR-0317140124XD

 11 10  0  0  0  0            999 V2000
    4.2365    0.3630    0.0000 N   0  0  0  0  0  0  0  0  0  0  0  0
    3.5220    1.6005    0.0000 N   0  0  0  0  0  0  0  0  0  0  0  0
    4.9509    1.6005    0.0000 N   0  0  0  0  0  0  0  0  0  0  0  0
    2.0930    1.6005    0.0000 N   0  0  0  0  0  0  0  0  0  0  0  0
    2.8075    0.3630    0.0000 N   0  0  0  0  0  0  0  0  0  0  0  0
    4.9509   -0.8745    0.0000 C   0  0  0  0  0  0  0  0  0  0  0  0
    5.6655   -1.2870    0.0000 C   0  0  0  0  0  0  0  0  0  0  0  0
    4.9509   -0.0495    0.0000 C   0  0  0  0  0  0  0  0  0  0  0  0
    5.6655   -2.1120    0.0000 C   0  0  0  0  0  0  0  0  0  0  0  0
    4.2365    1.1880    0.0000 C   0  0  0  0  0  0  0  0  0  0  0  0
    2.8075    1.1880    0.0000 C   0  0  0  0  0  0  0  0  0  0  0  0
  1  8  1  0  0  0  0
  1 10  2  0  0  0  0
  2 10  1  0  0  0  0
  2 11  2  0  0  0  0
  3 10  1  0  0  0  0
  4 11  1  0  0  0  0
  5 11  1  0  0  0  0
  6  7  1  0  0  0  0
  6  8  1  0  0  0  0
  7  9  1  0  0  0  0
M  END
> <DRUGBANK_ID>
DB04830

> <DRUG_GROUPS>
withdrawn

> <GENERIC_NAME>
Buformin

> <SYNONYMS>
1-Butylbiguanide; 1-Butyldiguanide; Buformin hydrochloride; Buformina [inn-spanish]; Buformine; Buformine [inn-french]; Buformine HCL; Buforminum [inn-latin]; Butformin; Butyl guanylguanidine; Butylbiguanide; Butylbiguanide hydrochloride; Butylbiguanidum; Butyldiguanide; DBV hydrochloride; N-butylbiguanide

> <BRANDS>
Adebit; Andere; Biforon; Diabrin; Glybigid; Glybigidum; Panformin; Silubin; Sindiatil

> <CHEMICAL_FORMULA>
C6H15N5

> <MOLECULAR_WEIGHT>
157.2168

> <EXACT_MASS>
157.132745505

> <IUPAC_NAME>
(E)-2-butyl-1-(diaminomethylidene)guanidine

> <INCHI_IDENTIFIER>
InChI=1S/C6H15N5/c1-2-3-4-10-6(9)11-5(7)8/h2-4H2,1H3,(H6,7,8,9,10,11)

> <INCHI_KEY>
InChIKey=XSEUMFJMFFMCIU-UHFFFAOYSA-N

> <SMILES>
CCCC\N=C(/N)N=C(N)N

> <JCHEM_ACCEPTOR_COUNT>
5

> <JCHEM_DONOR_COUNT>
3

> <JCHEM_BASIC_PKA>
11.52

> <JCHEM_PHYSIOLOGICAL_CHARGE>
2

> <ALOGPS_LOGP>
-0.46

> <JCHEM_LOGP>
-0.35

> <ALOGPS_LOGS>
-2

> <JCHEM_POLARIZABILITY>
17.67

> <JCHEM_POLAR_SURFACE_AREA>
102.78

> <JCHEM_REFRACTIVITY>
44.64

> <JCHEM_ROTATABLE_BOND_COUNT>
3

> <ALOGPS_SOLUBILITY>
1.41e+00 g/l __ 

$$$$
DB04831
ChemmineR-0317140124XD

 20 21  0  0  0  0            999 V2000
    1.6500    1.2035    0.0000 Cl   0  0  0  0  0  0  0  0  0  0  0  0
    1.6500   -0.4465    0.0000 Cl   0  0  0  0  0  0  0  0  0  0  0  0
    3.8797    3.2615    0.0000 S    0  0  0  0  0  0  0  0  0  0  0  0
    3.0790   -1.2715    0.0000 O    0  0  0  0  0  0  0  0  0  0  0  0
    2.3645    2.4410    0.0000 O    0  0  0  0  0  0  0  0  0  0  0  0
    4.5080   -2.9215    0.0000 O    0  0  0  0  0  0  0  0  0  0  0  0
    3.0790   -2.9215    0.0000 O    0  0  0  0  0  0  0  0  0  0  0  0
    3.0790    1.2035    0.0000 C    0  0  0  0  0  0  0  0  0  0  0  0
    3.0790   -0.4465    0.0000 C    0  0  0  0  0  0  0  0  0  0  0  0
    2.3645    0.7910    0.0000 C    0  0  0  0  0  0  0  0  0  0  0  0
    3.7935    0.7910    0.0000 C    0  0  0  0  0  0  0  0  0  0  0  0
    3.0790    2.0285    0.0000 C    0  0  0  0  0  0  0  0  0  0  0  0
    2.3645   -0.0340    0.0000 C    0  0  0  0  0  0  0  0  0  0  0  0
    3.7935   -0.0340    0.0000 C    0  0  0  0  0  0  0  0  0  0  0  0
    3.7935    2.4410    0.0000 C    0  0  0  0  0  0  0  0  0  0  0  0
    4.5471    2.1054    0.0000 C    0  0  0  0  0  0  0  0  0  0  0  0
    3.7935   -1.6840    0.0000 C    0  0  0  0  0  0  0  0  0  0  0  0
    5.0992    2.7186    0.0000 C    0  0  0  0  0  0  0  0  0  0  0  0
    4.6867    3.4330    0.0000 C    0  0  0  0  0  0  0  0  0  0  0  0
    3.7935   -2.5090    0.0000 C    0  0  0  0  0  0  0  0  0  0  0  0
  1 10  1  0  0  0  0
  2 13  1  0  0  0  0
  3 15  1  0  0  0  0
  3 19  1  0  0  0  0
  4  9  1  0  0  0  0
  4 17  1  0  0  0  0
  5 12  2  0  0  0  0
  6 20  1  0  0  0  0
  7 20  2  0  0  0  0
  8 10  2  0  0  0  0
  8 11  1  0  0  0  0
  8 12  1  0  0  0  0
  9 13  2  0  0  0  0
  9 14  1  0  0  0  0
 10 13  1  0  0  0  0
 11 14  2  0  0  0  0
 12 15  1  0  0  0  0
 15 16  2  0  0  0  0
 16 18  1  0  0  0  0
 17 20  1  0  0  0  0
 18 19  2  0  0  0  0
M  END
> <DRUGBANK_ID>
DB04831

> <DRUG_GROUPS>
withdrawn

> <GENERIC_NAME>
Ticrynafen

> <SYNONYMS>
(2,3-Dichloro-4-(2-thenoyl)phenoxy)acetic acid; (2,3-Dichloro-4-(2-thienylcarbonyl)phenoxy)acetic acid; (2,3-Dichloro-4-(2-thiophenecarbonyl)phenoxy)acetic acid; 4-(2-Theonyl)-2,3-dichlorphenoxyessigsaeure [German]; 4-(2-Thienylketo)-2,3-dichlorophenoxyacetic acid; Acide tienilique [inn-french]; Acido tienilico [inn-spanish]; Acidum tienilicum [inn-latin]; Thienylic acid; Tienilic acid; Tienilico acido [spanish]

> <BRANDS>
Diflurex; Selacryn; Ticrex

> <CHEMICAL_FORMULA>
C13H8Cl2O4S

> <MOLECULAR_WEIGHT>
331.171

> <EXACT_MASS>
329.952034848

> <IUPAC_NAME>
2-{2,3-dichloro-4-[(thiophen-2-yl)carbonyl]phenoxy}acetic acid

> <INCHI_IDENTIFIER>
InChI=1S/C13H8Cl2O4S/c14-11-7(13(18)9-2-1-5-20-9)3-4-8(12(11)15)19-6-10(16)17/h1-5H,6H2,(H,16,17)

> <INCHI_KEY>
InChIKey=AGHANLSBXUWXTB-UHFFFAOYSA-N

> <SMILES>
OC(=O)COC1=C(Cl)C(Cl)=C(C=C1)C(=O)C1=CC=CS1

> <JCHEM_ACCEPTOR_COUNT>
4

> <JCHEM_DONOR_COUNT>
1

> <JCHEM_ACIDIC_PKA>
3.22

> <JCHEM_BASIC_PKA>
-5

> <JCHEM_PHYSIOLOGICAL_CHARGE>
-1

> <ALOGPS_LOGP>
4.09

> <JCHEM_LOGP>
3.87

> <ALOGPS_LOGS>
-5.1

> <JCHEM_POLARIZABILITY>
30.45

> <JCHEM_POLAR_SURFACE_AREA>
63.6

> <JCHEM_REFRACTIVITY>
75.68

> <JCHEM_ROTATABLE_BOND_COUNT>
5

> <ALOGPS_SOLUBILITY>
2.54e-03 g/l __ 

$$$$
DB04832
ChemmineR-0317140124XD

 19 20  0  0  0  0            999 V2000
    3.7935   -2.8876    0.0000 Br   0  0  0  0  0  0  0  0  0  0  0  0
    2.3645    2.0625    0.0000 N    0  0  0  0  0  0  0  0  0  0  0  0
    5.9370    0.8250    0.0000 N    0  0  0  0  0  0  0  0  0  0  0  0
    3.7935    0.4125    0.0000 C    0  0  0  0  0  0  0  0  0  0  0  0
    3.0791    1.6500    0.0000 C    0  0  0  0  0  0  0  0  0  0  0  0
    3.0791    0.8250    0.0000 C    0  0  0  0  0  0  0  0  0  0  0  0
    3.7935   -0.4125    0.0000 C    0  0  0  0  0  0  0  0  0  0  0  0
    4.5080    0.8250    0.0000 C    0  0  0  0  0  0  0  0  0  0  0  0
    4.5080   -0.8250    0.0000 C    0  0  0  0  0  0  0  0  0  0  0  0
    3.0791   -0.8250    0.0000 C    0  0  0  0  0  0  0  0  0  0  0  0
    2.3645    2.8876    0.0000 C    0  0  0  0  0  0  0  0  0  0  0  0
    1.6500    1.6500    0.0000 C    0  0  0  0  0  0  0  0  0  0  0  0
    4.5080    1.6500    0.0000 C    0  0  0  0  0  0  0  0  0  0  0  0
    5.2224    0.4125    0.0000 C    0  0  0  0  0  0  0  0  0  0  0  0
    4.5080   -1.6500    0.0000 C    0  0  0  0  0  0  0  0  0  0  0  0
    3.0791   -1.6500    0.0000 C    0  0  0  0  0  0  0  0  0  0  0  0
    3.7935   -2.0625    0.0000 C    0  0  0  0  0  0  0  0  0  0  0  0
    5.2224    2.0625    0.0000 C    0  0  0  0  0  0  0  0  0  0  0  0
    5.9370    1.6500    0.0000 C    0  0  0  0  0  0  0  0  0  0  0  0
  1 17  1  0  0  0  0
  2  5  1  0  0  0  0
  2 11  1  0  0  0  0
  2 12  1  0  0  0  0
  3 14  1  0  0  0  0
  3 19  2  0  0  0  0
  4  6  2  3  0  0  0
  4  7  1  0  0  0  0
  4  8  1  0  0  0  0
  5  6  1  0  0  0  0
  7  9  2  0  0  0  0
  7 10  1  0  0  0  0
  8 13  1  0  0  0  0
  8 14  2  0  0  0  0
  9 15  1  0  0  0  0
 10 16  2  0  0  0  0
 13 18  2  0  0  0  0
 15 17  2  0  0  0  0
 16 17  1  0  0  0  0
 18 19  1  0  0  0  0
M  END
> <DRUGBANK_ID>
DB04832

> <DRUG_GROUPS>
withdrawn

> <GENERIC_NAME>
Zimelidine

> <SYNONYMS>
(Z)-3-(4'-Bromophenyl)-3-(3''-pyridyl)dimethylallylamine; (Z)-3-[1-(p-Bromophenyl)-3-(dimethylamino)propenyl]pyridine; (z)-zimelidine; Cis-zimelidine; Zimeldine

> <CHEMICAL_FORMULA>
C16H17BrN2

> <MOLECULAR_WEIGHT>
317.224

> <EXACT_MASS>
316.057511201

> <IUPAC_NAME>
[3-(4-bromophenyl)-3-(pyridin-3-yl)prop-2-en-1-yl]dimethylamine

> <INCHI_IDENTIFIER>
InChI=1S/C16H17BrN2/c1-19(2)11-9-16(14-4-3-10-18-12-14)13-5-7-15(17)8-6-13/h3-10,12H,11H2,1-2H3/b16-9-

> <INCHI_KEY>
InChIKey=OYPPVKRFBIWMSX-SXGWCWSVSA-N

> <SMILES>
CN(C)CC=C(C1=CC=C(Br)C=C1)C1=CN=CC=C1

> <JCHEM_ACCEPTOR_COUNT>
2

> <JCHEM_DONOR_COUNT>
0

> <JCHEM_BASIC_PKA>
8.62

> <JCHEM_PHYSIOLOGICAL_CHARGE>
1

> <ALOGPS_LOGP>
3.39

> <JCHEM_LOGP>
3.51

> <ALOGPS_LOGS>
-4.1

> <JCHEM_POLARIZABILITY>
30.96

> <JCHEM_POLAR_SURFACE_AREA>
16.13

> <JCHEM_REFRACTIVITY>
93.94

> <JCHEM_ROTATABLE_BOND_COUNT>
4

> <ALOGPS_SOLUBILITY>
2.39e-02 g/l __ 

$$$$
DB04833
ChemmineR-0317140124XD

 19 21  0  0  0  0            999 V2000
    4.5079   -1.0455    0.0000 O   0  0  0  0  0  0  0  0  0  0  0  0
    3.7934    0.1920    0.0000 N   0  0  0  0  0  0  0  0  0  0  0  0
    4.5079    1.4295    0.0000 N   0  0  0  0  0  0  0  0  0  0  0  0
    3.0790   -0.2205    0.0000 C   0  0  0  0  0  0  0  0  0  0  0  0
    3.7934    1.0170    0.0000 C   0  0  0  0  0  0  0  0  0  0  0  0
    5.2223    0.1920    0.0000 C   0  0  0  0  0  0  0  0  0  0  0  0
    4.5079   -0.2205    0.0000 C   0  0  0  0  0  0  0  0  0  0  0  0
    2.3645    0.1920    0.0000 C   0  0  0  0  0  0  0  0  0  0  0  0
    5.2223    1.0170    0.0000 C   0  0  0  0  0  0  0  0  0  0  0  0
    3.0790   -1.0455    0.0000 C   0  0  0  0  0  0  0  0  0  0  0  0
    5.9599   -0.2492    0.0000 C   0  0  0  0  0  0  0  0  0  0  0  0
    3.0790    1.4295    0.0000 C   0  0  0  0  0  0  0  0  0  0  0  0
    1.6500   -0.2205    0.0000 C   0  0  0  0  0  0  0  0  0  0  0  0
    5.9599    1.4580    0.0000 C   0  0  0  0  0  0  0  0  0  0  0  0
    2.3645    1.0170    0.0000 C   0  0  0  0  0  0  0  0  0  0  0  0
    2.3645   -1.4580    0.0000 C   0  0  0  0  0  0  0  0  0  0  0  0
    1.6500   -1.0455    0.0000 C   0  0  0  0  0  0  0  0  0  0  0  0
    6.7073    0.1748    0.0000 C   0  0  0  0  0  0  0  0  0  0  0  0
    6.7073    1.0341    0.0000 C   0  0  0  0  0  0  0  0  0  0  0  0
  1  7  2  0  0  0  0
  2  4  1  0  0  0  0
  2  5  1  0  0  0  0
  2  7  1  0  0  0  0
  3  5  2  0  0  0  0
  3  9  1  0  0  0  0
  4  8  1  0  0  0  0
  4 10  2  0  0  0  0
  5 12  1  0  0  0  0
  6  7  1  0  0  0  0
  6  9  1  0  0  0  0
  6 11  2  0  0  0  0
  8 13  2  0  0  0  0
  8 15  1  0  0  0  0
  9 14  2  0  0  0  0
 10 16  1  0  0  0  0
 11 18  1  0  0  0  0
 13 17  1  0  0  0  0
 14 19  1  0  0  0  0
 16 17  2  0  0  0  0
 18 19  2  0  0  0  0
M  END
> <DRUGBANK_ID>
DB04833

> <DRUG_GROUPS>
illicit; withdrawn

> <GENERIC_NAME>
Methaqualone

> <BRANDS>
Quaalude

> <CHEMICAL_FORMULA>
C16H14N2O

> <MOLECULAR_WEIGHT>
250.2952

> <EXACT_MASS>
250.11061308

> <IUPAC_NAME>
2-methyl-3-(2-methylphenyl)-3,4-dihydroquinazolin-4-one

> <INCHI_IDENTIFIER>
InChI=1S/C16H14N2O/c1-11-7-3-6-10-15(11)18-12(2)17-14-9-5-4-8-13(14)16(18)19/h3-10H,1-2H3

> <INCHI_KEY>
InChIKey=JEYCTXHKTXCGPB-UHFFFAOYSA-N

> <SMILES>
CC1=CC=CC=C1N1C(C)=NC2=CC=CC=C2C1=O

> <JCHEM_ACCEPTOR_COUNT>
2

> <JCHEM_DONOR_COUNT>
0

> <JCHEM_BASIC_PKA>
-1.2

> <JCHEM_PHYSIOLOGICAL_CHARGE>
0

> <ALOGPS_LOGP>
2.54

> <JCHEM_LOGP>
3.17

> <ALOGPS_LOGS>
-3.8

> <JCHEM_POLARIZABILITY>
27.32

> <JCHEM_POLAR_SURFACE_AREA>
32.67

> <JCHEM_REFRACTIVITY>
77.11

> <JCHEM_ROTATABLE_BOND_COUNT>
0

> <ALOGPS_SOLUBILITY>
4.07e-02 g/l __ 

$$$$
DB04834
ChemmineR-0317140124XD

 48 52  0  0  1  0            999 V2000
    4.9849    9.2965    0.0000 Br   0  5  0  0  0  0  0  0  0  0  0  0
    7.4046    5.2326    0.0000 O    0  0  0  0  0  0  0  0  0  0  0  0
    1.9182    1.6787    0.0000 O    0  0  0  0  0  0  0  0  0  0  0  0
    6.0463    5.6764    0.0000 O    0  0  0  0  0  0  0  0  0  0  0  0
    2.6279    0.4385    0.0000 O    0  0  0  0  0  0  0  0  0  0  0  0
    8.4548    3.7844    0.0000 N    0  3  0  0  0  0  0  0  0  0  0  0
    1.9315    3.4043    0.0000 N    0  0  0  0  0  0  0  0  0  0  0  0
    6.3676    3.3719    0.0000 C    0  0  2  0  0  0  0  0  0  0  0  0
    6.3676    4.1969    0.0000 C    0  0  1  0  0  0  0  0  0  0  0  0
    5.6532    2.9594    0.0000 C    0  0  1  0  0  0  0  0  0  0  0  0
    4.9386    3.3719    0.0000 C    0  0  1  0  0  0  0  0  0  0  0  0
    4.1879    2.9538    0.0000 C    0  0  2  0  0  0  0  0  0  0  0  0
    7.6297    3.7844    0.0000 C    0  0  2  0  0  0  0  0  0  0  0  0
    7.1483    4.4483    0.0000 C    0  0  2  0  0  0  0  0  0  0  0  0
    7.1483    3.1205    0.0000 C    0  0  0  0  0  0  0  0  0  0  0  0
    4.1813    2.0945    0.0000 C    0  0  1  0  0  0  0  0  0  0  0  0
    5.6532    4.6094    0.0000 C    0  0  0  0  0  0  0  0  0  0  0  0
    4.9386    4.1969    0.0000 C    0  0  0  0  0  0  0  0  0  0  0  0
    5.6664    2.1002    0.0000 C    0  0  0  0  0  0  0  0  0  0  0  0
    4.9255    1.6647    0.0000 C    0  0  0  0  0  0  0  0  0  0  0  0
    3.4232    3.4191    0.0000 C    0  0  0  0  0  0  0  0  0  0  0  0
    6.3676    5.0220    0.0000 C    0  0  0  0  0  0  0  0  0  0  0  0
    3.4095    1.6409    0.0000 C    0  0  0  0  0  0  0  0  0  0  0  0
    2.6412    2.9836    0.0000 C    0  0  1  0  0  0  0  0  0  0  0  0
    4.1942    3.7787    0.0000 C    0  0  0  0  0  0  0  0  0  0  0  0
    2.6344    2.0884    0.0000 C    0  0  1  0  0  0  0  0  0  0  0  0
    9.1692    3.3719    0.0000 C    0  0  0  0  0  0  0  0  0  0  0  0
    8.4548    4.6094    0.0000 C    0  0  0  0  0  0  0  0  0  0  0  0
    8.0423    3.0700    0.0000 C    0  0  0  0  0  0  0  0  0  0  0  0
    9.8838    3.7844    0.0000 C    0  0  0  0  0  0  0  0  0  0  0  0
    9.1692    5.0220    0.0000 C    0  0  0  0  0  0  0  0  0  0  0  0
    9.8838    4.6094    0.0000 C    0  0  0  0  0  0  0  0  0  0  0  0
    1.9411    4.2293    0.0000 C    0  0  0  0  0  0  0  0  0  0  0  0
    1.2124    3.0001    0.0000 C    0  0  0  0  0  0  0  0  0  0  0  0
    6.8536    5.8466    0.0000 C    0  0  0  0  0  0  0  0  0  0  0  0
    8.4548    2.3555    0.0000 C    0  0  0  0  0  0  0  0  0  0  0  0
    1.2314    4.6500    0.0000 C    0  0  0  0  0  0  0  0  0  0  0  0
    0.5027    3.4208    0.0000 C    0  0  0  0  0  0  0  0  0  0  0  0
    0.5123    4.2458    0.0000 C    0  0  0  0  0  0  0  0  0  0  0  0
    7.1099    6.6308    0.0000 C    0  0  0  0  0  0  0  0  0  0  0  0
    1.9151    0.8537    0.0000 C    0  0  0  0  0  0  0  0  0  0  0  0
    8.0423    1.6410    0.0000 C    0  0  0  0  0  0  0  0  0  0  0  0
    6.5589    7.2449    0.0000 C    0  0  0  0  0  0  0  0  0  0  0  0
    1.1990    0.4439    0.0000 C    0  0  0  0  0  0  0  0  0  0  0  0
    6.4374    2.7156    0.0000 H    0  0  0  0  0  0  0  0  0  0  0  0
    6.2272    2.6339    0.0000 H    0  0  0  0  0  0  0  0  0  0  0  0
    5.5103    3.7019    0.0000 H    0  0  0  0  0  0  0  0  0  0  0  0
    4.1838    1.4345    0.0000 H    0  0  0  0  0  0  0  0  0  0  0  0
 14  2  1  1  0  0  0
  2 35  1  0  0  0  0
 26  3  1  6  0  0  0
  3 41  1  0  0  0  0
  4 35  2  0  0  0  0
  5 41  2  0  0  0  0
 13  6  1  1  0  0  0
  6 27  1  0  0  0  0
  6 28  1  0  0  0  0
  6 29  1  0  0  0  0
 24  7  1  1  0  0  0
  7 33  1  0  0  0  0
  7 34  1  0  0  0  0
  8  9  1  0  0  0  0
  8 10  1  0  0  0  0
  8 15  1  0  0  0  0
  8 45  1  6  0  0  0
  9 14  1  0  0  0  0
  9 17  1  0  0  0  0
  9 22  1  1  0  0  0
 10 11  1  0  0  0  0
 10 19  1  0  0  0  0
 10 46  1  1  0  0  0
 11 12  1  0  0  0  0
 11 18  1  0  0  0  0
 11 47  1  6  0  0  0
 12 16  1  0  0  0  0
 12 21  1  0  0  0  0
 12 25  1  1  0  0  0
 13 14  1  0  0  0  0
 13 15  1  0  0  0  0
 16 20  1  0  0  0  0
 16 23  1  0  0  0  0
 16 48  1  6  0  0  0
 17 18  1  0  0  0  0
 19 20  1  0  0  0  0
 21 24  1  0  0  0  0
 23 26  1  0  0  0  0
 24 26  1  0  0  0  0
 27 30  1  0  0  0  0
 28 31  1  0  0  0  0
 29 36  1  0  0  0  0
 30 32  1  0  0  0  0
 31 32  1  0  0  0  0
 33 37  1  0  0  0  0
 34 38  1  0  0  0  0
 35 40  1  0  0  0  0
 36 42  2  0  0  0  0
 37 39  1  0  0  0  0
 38 39  1  0  0  0  0
 40 43  1  0  0  0  0
 41 44  1  0  0  0  0
M  END
> <DRUGBANK_ID>
DB04834

> <DRUG_GROUPS>
withdrawn

> <GENERIC_NAME>
Rapacuronium

> <SYNONYMS>
Rapacuronium bromide

> <BRANDS>
Raplon

> <CHEMICAL_FORMULA>
C37H61BrN2O4

> <MOLECULAR_WEIGHT>
677.795

> <EXACT_MASS>
676.381471097

> <IUPAC_NAME>
1-[(1S,2S,4S,5S,7S,10R,11S,13S,14R,15S)-5-(acetyloxy)-2,15-dimethyl-4-(piperidin-1-yl)-14-(propanoyloxy)tetracyclo[8.7.0.0^{2,7}.0^{11,15}]heptadecan-13-yl]-1-(prop-2-en-1-yl)piperidin-1-ium bromide

> <INCHI_IDENTIFIER>
InChI=1S/C37H61N2O4.BrH/c1-6-20-39(21-12-9-13-22-39)32-24-30-28-15-14-27-23-33(42-26(3)40)31(38-18-10-8-11-19-38)25-37(27,5)29(28)16-17-36(30,4)35(32)43-34(41)7-2;/h6,27-33,35H,1,7-25H2,2-5H3;1H/q+1;/p-1/t27-,28+,29-,30-,31-,32-,33-,35-,36-,37-;/m0./s1

> <INCHI_KEY>
InChIKey=LVQTUXZKLGXYIU-GWSNJHLMSA-M

> <SMILES>
[Br-].[H][C@@]12C[C@@H]([C@H](OC(=O)CC)[C@@]1(C)CC[C@@]1([H])[C@@]2([H])CC[C@@]2([H])C[C@H](OC(C)=O)[C@H](C[C@]12C)N1CCCCC1)[N+]1(CC=C)CCCCC1

> <JCHEM_ACCEPTOR_COUNT>
3

> <JCHEM_DONOR_COUNT>
0

> <JCHEM_BASIC_PKA>
9.65

> <JCHEM_PHYSIOLOGICAL_CHARGE>
2

> <ALOGPS_LOGP>
3.45

> <JCHEM_LOGP>
2.32

> <ALOGPS_LOGS>
-7.6

> <JCHEM_POLARIZABILITY>
72.29

> <JCHEM_POLAR_SURFACE_AREA>
55.84

> <JCHEM_REFRACTIVITY>
183.1

> <JCHEM_ROTATABLE_BOND_COUNT>
9

> <ALOGPS_SOLUBILITY>
1.82e-05 g/l __ 

$$$$
DB04836
ChemmineR-0317140124XD

 26 27  0  0  0  0            999 V2000
    0.0000    4.0865    0.0000 Cl   0  5  0  0  0  0  0  0  0  0  0  0
    2.1028    0.5115    0.0000 O    0  0  0  0  0  0  0  0  0  0  0  0
    3.5317    0.5115    0.0000 O    0  0  0  0  0  0  0  0  0  0  0  0
    4.9606    5.4611    0.0000 N    0  3  0  0  0  0  0  0  0  0  0  0
    4.9606    6.2860    0.0000 C    0  0  0  0  0  0  0  0  0  0  0  0
    5.7038    6.6440    0.0000 C    0  0  0  0  0  0  0  0  0  0  0  0
    4.2173    6.6440    0.0000 C    0  0  0  0  0  0  0  0  0  0  0  0
    4.9606    4.6361    0.0000 C    0  0  0  0  0  0  0  0  0  0  0  0
    5.8874    7.4482    0.0000 C    0  0  0  0  0  0  0  0  0  0  0  0
    4.0338    7.4482    0.0000 C    0  0  0  0  0  0  0  0  0  0  0  0
    5.3731    8.0930    0.0000 C    0  0  0  0  0  0  0  0  0  0  0  0
    4.5481    8.0930    0.0000 C    0  0  0  0  0  0  0  0  0  0  0  0
    4.2461    4.2237    0.0000 C    0  0  0  0  0  0  0  0  0  0  0  0
    4.2461    3.3987    0.0000 C    0  0  0  0  0  0  0  0  0  0  0  0
    6.3246    6.0498    0.0000 C    0  0  0  0  0  0  0  0  0  0  0  0
    3.5965    6.0498    0.0000 C    0  0  0  0  0  0  0  0  0  0  0  0
    3.5317    2.9863    0.0000 C    0  0  0  0  0  0  0  0  0  0  0  0
    6.7044    7.7141    0.0000 C    0  0  0  0  0  0  0  0  0  0  0  0
    3.2166    7.7141    0.0000 C    0  0  0  0  0  0  0  0  0  0  0  0
    3.5317    2.1613    0.0000 C    0  0  0  0  0  0  0  0  0  0  0  0
    7.1476    6.2967    0.0000 C    0  0  0  0  0  0  0  0  0  0  0  0
    2.7735    6.2967    0.0000 C    0  0  0  0  0  0  0  0  0  0  0  0
    7.3388    7.1344    0.0000 C    0  0  0  0  0  0  0  0  0  0  0  0
    2.5823    7.1345    0.0000 C    0  0  0  0  0  0  0  0  0  0  0  0
    2.8173    1.7489    0.0000 C    0  0  0  0  0  0  0  0  0  0  0  0
    2.8173    0.9239    0.0000 C    0  0  0  0  0  0  0  0  0  0  0  0
  2 26  1  0  0  0  0
  3 26  2  0  0  0  0
  4  5  1  0  0  0  0
  4  8  1  0  0  0  0
  5  6  1  0  0  0  0
  5  7  1  0  0  0  0
  6  9  1  0  0  0  0
  6 15  2  0  0  0  0
  7 10  1  0  0  0  0
  7 16  2  0  0  0  0
  8 13  1  0  0  0  0
  9 11  1  0  0  0  0
  9 18  2  0  0  0  0
 10 12  1  0  0  0  0
 10 19  2  0  0  0  0
 11 12  1  0  0  0  0
 13 14  1  0  0  0  0
 14 17  1  0  0  0  0
 15 21  1  0  0  0  0
 16 22  1  0  0  0  0
 17 20  1  0  0  0  0
 18 23  1  0  0  0  0
 19 24  1  0  0  0  0
 20 25  1  0  0  0  0
 21 23  2  0  0  0  0
 22 24  2  0  0  0  0
 25 26  1  0  0  0  0
M  END
> <DRUGBANK_ID>
DB04836

> <DRUG_GROUPS>
illicit; withdrawn

> <GENERIC_NAME>
Amineptine

> <SYNONYMS>
Amineptine hydrochloride

> <BRANDS>
Maneon; Survector

> <CHEMICAL_FORMULA>
C22H28ClNO2

> <MOLECULAR_WEIGHT>
373.916

> <EXACT_MASS>
373.180856852

> <IUPAC_NAME>
N-(6-carboxyhexyl)tricyclo[9.4.0.0^{3,8}]pentadeca-1(11),3(8),4,6,12,14-hexaen-2-aminium chloride

> <INCHI_IDENTIFIER>
InChI=1S/C22H27NO2.ClH/c24-21(25)13-3-1-2-8-16-23-22-19-11-6-4-9-17(19)14-15-18-10-5-7-12-20(18)22;/h4-7,9-12,22-23H,1-3,8,13-16H2,(H,24,25);1H

> <INCHI_KEY>
InChIKey=VDPUXONTAVMIKZ-UHFFFAOYSA-N

> <SMILES>
[Cl-].OC(=O)CCCCCC[NH2+]C1C2=CC=CC=C2CCC2=CC=CC=C12

> <JCHEM_ACCEPTOR_COUNT>
2

> <JCHEM_DONOR_COUNT>
2

> <JCHEM_ACIDIC_PKA>
4.41

> <JCHEM_BASIC_PKA>
9.46

> <JCHEM_PHYSIOLOGICAL_CHARGE>
0

> <ALOGPS_LOGP>
0.99

> <JCHEM_LOGP>
2.74

> <ALOGPS_LOGS>
-7.3

> <JCHEM_POLARIZABILITY>
39.95

> <JCHEM_POLAR_SURFACE_AREA>
53.91

> <JCHEM_REFRACTIVITY>
112.63

> <JCHEM_ROTATABLE_BOND_COUNT>
8

> <ALOGPS_SOLUBILITY>
1.84e-05 g/l __ 

$$$$
DB04898
ChemmineR-0317140124XD

 34 36  0  0  1  0            999 V2000
    6.6001   -2.5484    0.0000 O   0  0  0  0  0  0  0  0  0  0  0  0
    7.0051   -1.0370    0.0000 O   0  0  0  0  0  0  0  0  0  0  0  0
    2.8876   -4.6919    0.0000 O   0  0  0  0  0  0  0  0  0  0  0  0
    2.8876   -3.2629    0.0000 O   0  0  0  0  0  0  0  0  0  0  0  0
    6.2906    5.1506    0.0000 O   0  0  0  0  0  0  0  0  0  0  0  0
    5.3626   -1.8339    0.0000 N   0  0  0  0  0  0  0  0  0  0  0  0
    4.5376   -3.2629    0.0000 N   0  0  0  0  0  0  0  0  0  0  0  0
    6.2906    0.2005    0.0000 N   0  0  0  0  0  0  0  0  0  0  0  0
    7.7196    4.3256    0.0000 N   0  0  0  0  0  0  0  0  0  0  0  0
    6.2906    4.3256    0.0000 N   0  0  0  0  0  0  0  0  0  0  0  0
    5.7751   -3.9774    0.0000 C   0  0  0  0  0  0  0  0  0  0  0  0
    5.3626   -3.2629    0.0000 C   0  0  2  0  0  0  0  0  0  0  0  0
    5.3626   -4.6919    0.0000 C   0  0  0  0  0  0  0  0  0  0  0  0
    6.6001   -3.9774    0.0000 C   0  0  0  0  0  0  0  0  0  0  0  0
    5.7751   -5.4063    0.0000 C   0  0  0  0  0  0  0  0  0  0  0  0
    7.0127   -4.6919    0.0000 C   0  0  0  0  0  0  0  0  0  0  0  0
    5.5761   -1.0370    0.0000 C   0  0  1  0  0  0  0  0  0  0  0  0
    6.6001   -5.4063    0.0000 C   0  0  0  0  0  0  0  0  0  0  0  0
    4.5657   -1.6204    0.0000 C   0  0  0  0  0  0  0  0  0  0  0  0
    4.7792   -0.8235    0.0000 C   0  0  0  0  0  0  0  0  0  0  0  0
    5.7751   -2.5484    0.0000 C   0  0  0  0  0  0  0  0  0  0  0  0
    6.2906   -0.6245    0.0000 C   0  0  0  0  0  0  0  0  0  0  0  0
    4.1251   -3.9774    0.0000 C   0  0  0  0  0  0  0  0  0  0  0  0
    3.3001   -3.9774    0.0000 C   0  0  0  0  0  0  0  0  0  0  0  0
    7.0051    0.6130    0.0000 C   0  0  0  0  0  0  0  0  0  0  0  0
    7.0051    1.4380    0.0000 C   0  0  0  0  0  0  0  0  0  0  0  0
    6.2906    1.8505    0.0000 C   0  0  0  0  0  0  0  0  0  0  0  0
    7.7196    1.8505    0.0000 C   0  0  0  0  0  0  0  0  0  0  0  0
    2.0625   -4.6919    0.0000 C   0  0  0  0  0  0  0  0  0  0  0  0
    6.2906    2.6755    0.0000 C   0  0  0  0  0  0  0  0  0  0  0  0
    7.7196    2.6755    0.0000 C   0  0  0  0  0  0  0  0  0  0  0  0
    7.0051    3.0880    0.0000 C   0  0  0  0  0  0  0  0  0  0  0  0
    1.6500   -5.4063    0.0000 C   0  0  0  0  0  0  0  0  0  0  0  0
    7.0051    3.9131    0.0000 C   0  0  0  0  0  0  0  0  0  0  0  0
  1 21  2  0  0  0  0
  2 22  2  0  0  0  0
  3 24  1  0  0  0  0
  3 29  1  0  0  0  0
  4 24  2  0  0  0  0
  5 10  1  0  0  0  0
  6 17  1  0  0  0  0
  6 19  1  0  0  0  0
  6 21  1  0  0  0  0
 12  7  1  1  0  0  0
  7 23  1  0  0  0  0
  8 22  1  0  0  0  0
  8 25  1  0  0  0  0
  9 34  1  0  0  0  0
 10 34  2  0  0  0  0
 11 12  1  0  0  0  0
 11 13  1  0  0  0  0
 11 14  1  0  0  0  0
 12 21  1  0  0  0  0
 13 15  1  0  0  0  0
 14 16  1  0  0  0  0
 15 18  1  0  0  0  0
 16 18  1  0  0  0  0
 17 20  1  0  0  0  0
 17 22  1  1  0  0  0
 19 20  1  0  0  0  0
 23 24  1  0  0  0  0
 25 26  1  0  0  0  0
 26 27  2  0  0  0  0
 26 28  1  0  0  0  0
 27 30  1  0  0  0  0
 28 31  2  0  0  0  0
 29 33  1  0  0  0  0
 30 32  2  0  0  0  0
 31 32  1  0  0  0  0
 32 34  1  0  0  0  0
M  END
> <DRUGBANK_ID>
DB04898

> <DRUG_GROUPS>
approved; withdrawn; investigational

> <GENERIC_NAME>
Ximelagatran

> <SYNONYMS>
H 376/95

> <BRANDS>
Exanta; Exarta

> <CHEMICAL_FORMULA>
C24H35N5O5

> <MOLECULAR_WEIGHT>
473.5652

> <EXACT_MASS>
473.263819255

> <IUPAC_NAME>
ethyl 2-{[(1R)-1-cyclohexyl-2-[(2S)-2-[({4-[(Z)-N'-hydroxycarbamimidoyl]phenyl}methyl)carbamoyl]azetidin-1-yl]-2-oxoethyl]amino}acetate

> <INCHI_IDENTIFIER>
InChI=1S/C24H35N5O5/c1-2-34-20(30)15-26-21(17-6-4-3-5-7-17)24(32)29-13-12-19(29)23(31)27-14-16-8-10-18(11-9-16)22(25)28-33/h8-11,17,19,21,26,33H,2-7,12-15H2,1H3,(H2,25,28)(H,27,31)/t19-,21+/m0/s1

> <INCHI_KEY>
InChIKey=ZXIBCJHYVWYIKI-PZJWPPBQSA-N

> <SMILES>
CCOC(=O)CN[C@@H](C(=O)N1CC[C@H]1C(=O)NCC1=CC=C(C=C1)C(\N)=N\O)C1CCCCC1

> <JCHEM_ACCEPTOR_COUNT>
7

> <JCHEM_DONOR_COUNT>
4

> <JCHEM_ACIDIC_PKA>
9.64

> <JCHEM_BASIC_PKA>
5.48

> <JCHEM_PHYSIOLOGICAL_CHARGE>
0

> <ALOGPS_LOGP>
1.35

> <JCHEM_LOGP>
0.87

> <ALOGPS_LOGS>
-3.8

> <JCHEM_POLARIZABILITY>
52.15

> <JCHEM_POLAR_SURFACE_AREA>
146.35

> <JCHEM_REFRACTIVITY>
126.57

> <JCHEM_ROTATABLE_BOND_COUNT>
11

> <ALOGPS_SOLUBILITY>
8.45e-02 g/l __ 

$$$$
DB06144
ChemmineR-0317140124XD

 31 35  0  0  0  0            999 V2000
    1.6500   -0.3414    0.0000 Cl   0  0  0  0  0  0  0  0  0  0  0  0
    5.5992   -4.9670    0.0000 F    0  0  0  0  0  0  0  0  0  0  0  0
    8.1145    3.3560    0.0000 O    0  0  0  0  0  0  0  0  0  0  0  0
    5.3430    1.8501    0.0000 N    0  0  0  0  0  0  0  0  0  0  0  0
    4.5741   -1.8304    0.0000 N    0  0  0  0  0  0  0  0  0  0  0  0
    6.6628    3.5885    0.0000 N    0  0  0  0  0  0  0  0  0  0  0  0
    7.4493    4.6672    0.0000 N    0  0  0  0  0  0  0  0  0  0  0  0
    4.8304    0.2817    0.0000 C    0  0  0  0  0  0  0  0  0  0  0  0
    4.2794    0.8957    0.0000 C    0  0  0  0  0  0  0  0  0  0  0  0
    5.6377    0.4518    0.0000 C    0  0  0  0  0  0  0  0  0  0  0  0
    4.5357    1.6799    0.0000 C    0  0  0  0  0  0  0  0  0  0  0  0
    5.8939    1.2360    0.0000 C    0  0  0  0  0  0  0  0  0  0  0  0
    4.5741   -0.5025    0.0000 C    0  0  0  0  0  0  0  0  0  0  0  0
    5.5992    2.6343    0.0000 C    0  0  0  0  0  0  0  0  0  0  0  0
    3.7935   -0.7539    0.0000 C    0  0  0  0  0  0  0  0  0  0  0  0
    6.4066    2.8044    0.0000 C    0  0  0  0  0  0  0  0  0  0  0  0
    5.0556   -1.1664    0.0000 C    0  0  0  0  0  0  0  0  0  0  0  0
    3.7935   -1.5789    0.0000 C    0  0  0  0  0  0  0  0  0  0  0  0
    6.1791    4.2569    0.0000 C    0  0  0  0  0  0  0  0  0  0  0  0
    3.0790   -0.3414    0.0000 C    0  0  0  0  0  0  0  0  0  0  0  0
    6.6652    4.9235    0.0000 C    0  0  0  0  0  0  0  0  0  0  0  0
    3.0790   -1.9914    0.0000 C    0  0  0  0  0  0  0  0  0  0  0  0
    4.8304   -2.6145    0.0000 C    0  0  0  0  0  0  0  0  0  0  0  0
    7.4479    3.8421    0.0000 C    0  0  0  0  0  0  0  0  0  0  0  0
    2.3645   -0.7539    0.0000 C    0  0  0  0  0  0  0  0  0  0  0  0
    2.3645   -1.5789    0.0000 C    0  0  0  0  0  0  0  0  0  0  0  0
    5.6377   -2.7846    0.0000 C    0  0  0  0  0  0  0  0  0  0  0  0
    4.2794   -3.2286    0.0000 C    0  0  0  0  0  0  0  0  0  0  0  0
    5.8939   -3.5688    0.0000 C    0  0  0  0  0  0  0  0  0  0  0  0
    4.5357   -4.0128    0.0000 C    0  0  0  0  0  0  0  0  0  0  0  0
    5.3430   -4.1829    0.0000 C    0  0  0  0  0  0  0  0  0  0  0  0
  1 25  1  0  0  0  0
  2 31  1  0  0  0  0
  3 24  2  0  0  0  0
  4 11  1  0  0  0  0
  4 12  1  0  0  0  0
  4 14  1  0  0  0  0
  5 17  1  0  0  0  0
  5 18  1  0  0  0  0
  5 23  1  0  0  0  0
  6 16  1  0  0  0  0
  6 19  1  0  0  0  0
  6 24  1  0  0  0  0
  7 21  1  0  0  0  0
  7 24  1  0  0  0  0
  8  9  1  0  0  0  0
  8 10  1  0  0  0  0
  8 13  1  0  0  0  0
  9 11  1  0  0  0  0
 10 12  1  0  0  0  0
 13 15  1  0  0  0  0
 13 17  2  0  0  0  0
 14 16  1  0  0  0  0
 15 18  2  0  0  0  0
 15 20  1  0  0  0  0
 18 22  1  0  0  0  0
 19 21  1  0  0  0  0
 20 25  2  0  0  0  0
 22 26  2  0  0  0  0
 23 27  2  0  0  0  0
 23 28  1  0  0  0  0
 25 26  1  0  0  0  0
 27 29  1  0  0  0  0
 28 30  2  0  0  0  0
 29 31  2  0  0  0  0
 30 31  1  0  0  0  0
M  END
> <DRUGBANK_ID>
DB06144

> <DRUG_GROUPS>
approved; withdrawn

> <GENERIC_NAME>
Sertindole

> <SYNONYMS>
Sertindol [inn-spanish]; Sertindolum [inn-latin]

> <BRANDS>
Serdolect; Serlect

> <CHEMICAL_FORMULA>
C24H26ClFN4O

> <MOLECULAR_WEIGHT>
440.941

> <EXACT_MASS>
440.177917386

> <IUPAC_NAME>
1-(2-{4-[5-chloro-1-(4-fluorophenyl)-1H-indol-3-yl]piperidin-1-yl}ethyl)imidazolidin-2-one

> <INCHI_IDENTIFIER>
InChI=1S/C24H26ClFN4O/c25-18-1-6-23-21(15-18)22(16-30(23)20-4-2-19(26)3-5-20)17-7-10-28(11-8-17)13-14-29-12-9-27-24(29)31/h1-6,15-17H,7-14H2,(H,27,31)

> <INCHI_KEY>
InChIKey=GZKLJWGUPQBVJQ-UHFFFAOYSA-N

> <SMILES>
FC1=CC=C(C=C1)N1C=C(C2CCN(CCN3CCNC3=O)CC2)C2=C1C=CC(Cl)=C2

> <JCHEM_ACCEPTOR_COUNT>
2

> <JCHEM_DONOR_COUNT>
1

> <JCHEM_ACIDIC_PKA>
14.36

> <JCHEM_BASIC_PKA>
8.59

> <JCHEM_PHYSIOLOGICAL_CHARGE>
1

> <ALOGPS_LOGP>
4.29

> <JCHEM_LOGP>
3.77

> <ALOGPS_LOGS>
-4.7

> <JCHEM_POLARIZABILITY>
47.17

> <JCHEM_POLAR_SURFACE_AREA>
40.51

> <JCHEM_REFRACTIVITY>
131.77

> <JCHEM_ROTATABLE_BOND_COUNT>
5

> <ALOGPS_SOLUBILITY>
9.63e-03 g/l __ 

$$$$
DB06804
ChemmineR-0317140124XD

 43 43  0  0  0  0            999 V2000
   -6.4302    2.8875    0.0000 C   0  0  0  0  0  0  0  0  0  0  0  0
   -5.7158    2.4750    0.0000 C   0  0  0  0  0  0  0  0  0  0  0  0
   -5.0013    2.8875    0.0000 C   0  0  0  0  0  0  0  0  0  0  0  0
   -4.2868    2.4750    0.0000 C   0  0  0  0  0  0  0  0  0  0  0  0
   -3.5724    2.8875    0.0000 C   0  0  0  0  0  0  0  0  0  0  0  0
   -2.8579    2.4750    0.0000 C   0  0  0  0  0  0  0  0  0  0  0  0
   -2.1434    2.8875    0.0000 C   0  0  0  0  0  0  0  0  0  0  0  0
   -1.4289    2.4750    0.0000 C   0  0  0  0  0  0  0  0  0  0  0  0
   -0.7145    2.8875    0.0000 C   0  0  0  0  0  0  0  0  0  0  0  0
    0.0000    2.4750    0.0000 C   0  0  0  0  0  0  0  0  0  0  0  0
    0.7145    2.8875    0.0000 C   0  0  0  0  0  0  0  0  0  0  0  0
    1.4289    2.4750    0.0000 C   0  0  0  0  0  0  0  0  0  0  0  0
    1.4289    1.6500    0.0000 C   0  0  0  0  0  0  0  0  0  0  0  0
    0.7145    1.2375    0.0000 C   0  0  0  0  0  0  0  0  0  0  0  0
    0.0000    1.6500    0.0000 C   0  0  0  0  0  0  0  0  0  0  0  0
    2.1434    1.2375    0.0000 O   0  0  0  0  0  0  0  0  0  0  0  0
    2.8579    1.6500    0.0000 C   0  0  0  0  0  0  0  0  0  0  0  0
    3.5724    1.2375    0.0000 C   0  0  0  0  0  0  0  0  0  0  0  0
    4.2868    1.6500    0.0000 O   0  0  0  0  0  0  0  0  0  0  0  0
    5.0013    1.2375    0.0000 C   0  0  0  0  0  0  0  0  0  0  0  0
    5.7158    1.6500    0.0000 C   0  0  0  0  0  0  0  0  0  0  0  0
    6.4302    1.2375    0.0000 O   0  0  0  0  0  0  0  0  0  0  0  0
    7.1447    1.6500    0.0000 C   0  0  0  0  0  0  0  0  0  0  0  0
    7.8592    1.2375    0.0000 C   0  0  0  0  0  0  0  0  0  0  0  0
    8.5737    1.6500    0.0000 O   0  0  0  0  0  0  0  0  0  0  0  0
    9.2881    1.2375    0.0000 C   0  0  0  0  0  0  0  0  0  0  0  0
   10.0026    1.6500    0.0000 C   0  0  0  0  0  0  0  0  0  0  0  0
   10.7171    1.2375    0.0000 O   0  0  0  0  0  0  0  0  0  0  0  0
   11.4315    1.6500    0.0000 C   0  0  0  0  0  0  0  0  0  0  0  0
   12.1460    1.2375    0.0000 C   0  0  0  0  0  0  0  0  0  0  0  0
   12.8605    1.6500    0.0000 O   0  0  0  0  0  0  0  0  0  0  0  0
   13.5749    1.2375    0.0000 C   0  0  0  0  0  0  0  0  0  0  0  0
   14.2894    1.6500    0.0000 C   0  0  0  0  0  0  0  0  0  0  0  0
   15.0039    1.2375    0.0000 O   0  0  0  0  0  0  0  0  0  0  0  0
   15.7184    1.6500    0.0000 C   0  0  0  0  0  0  0  0  0  0  0  0
   16.4328    1.2375    0.0000 C   0  0  0  0  0  0  0  0  0  0  0  0
   17.1473    1.6500    0.0000 O   0  0  0  0  0  0  0  0  0  0  0  0
   17.8618    1.2375    0.0000 C   0  0  0  0  0  0  0  0  0  0  0  0
   18.5762    1.6500    0.0000 C   0  0  0  0  0  0  0  0  0  0  0  0
   19.2907    1.2375    0.0000 O   0  0  0  0  0  0  0  0  0  0  0  0
   20.0052    1.6500    0.0000 C   0  0  0  0  0  0  0  0  0  0  0  0
   20.7197    1.2375    0.0000 C   0  0  0  0  0  0  0  0  0  0  0  0
   21.4341    1.6500    0.0000 O   0  0  0  0  0  0  0  0  0  0  0  0
  1  2  1  0  0  0  0
  2  3  1  0  0  0  0
  3  4  1  0  0  0  0
  4  5  1  0  0  0  0
  5  6  1  0  0  0  0
  6  7  1  0  0  0  0
  7  8  1  0  0  0  0
  8  9  1  0  0  0  0
  9 10  1  0  0  0  0
 10 11  2  0  0  0  0
 11 12  1  0  0  0  0
 12 13  2  0  0  0  0
 13 14  1  0  0  0  0
 14 15  2  0  0  0  0
 10 15  1  0  0  0  0
 13 16  1  0  0  0  0
 16 17  1  0  0  0  0
 17 18  1  0  0  0  0
 18 19  1  0  0  0  0
 19 20  1  0  0  0  0
 20 21  1  0  0  0  0
 21 22  1  0  0  0  0
 22 23  1  0  0  0  0
 23 24  1  0  0  0  0
 24 25  1  0  0  0  0
 25 26  1  0  0  0  0
 26 27  1  0  0  0  0
 27 28  1  0  0  0  0
 28 29  1  0  0  0  0
 29 30  1  0  0  0  0
 30 31  1  0  0  0  0
 31 32  1  0  0  0  0
 32 33  1  0  0  0  0
 33 34  1  0  0  0  0
 34 35  1  0  0  0  0
 35 36  1  0  0  0  0
 36 37  1  0  0  0  0
 37 38  1  0  0  0  0
 38 39  1  0  0  0  0
 39 40  1  0  0  0  0
 40 41  1  0  0  0  0
 41 42  1  0  0  0  0
 42 43  1  0  0  0  0
M  END
> <DRUGBANK_ID>
DB06804

> <DRUG_GROUPS>
approved; withdrawn

> <GENERIC_NAME>
Nonoxynol-9

> <SYNONYMS>
N-9

> <BRANDS>
Advantage 24; Gynoll; Today; VCF

> <CHEMICAL_FORMULA>
C33H60O10

> <MOLECULAR_WEIGHT>
616.8235

> <EXACT_MASS>
616.41864814

> <IUPAC_NAME>
1-(4-nonylphenyl)-1,4,7,10,13,16,19,22,25-nonaoxaheptacosan-27-ol

> <INCHI_IDENTIFIER>
InChI=1S/C33H60O10/c1-2-3-4-5-6-7-8-9-32-10-12-33(13-11-32)43-31-30-42-29-28-41-27-26-40-25-24-39-23-22-38-21-20-37-19-18-36-17-16-35-15-14-34/h10-13,34H,2-9,14-31H2,1H3

> <INCHI_KEY>
InChIKey=FBWNMEQMRUMQSO-UHFFFAOYSA-N

> <SMILES>
CCCCCCCCCC1=CC=C(OCCOCCOCCOCCOCCOCCOCCOCCOCCO)C=C1

> <JCHEM_ACCEPTOR_COUNT>
10

> <JCHEM_DONOR_COUNT>
1

> <JCHEM_ACIDIC_PKA>
15.12

> <JCHEM_BASIC_PKA>
-2.7

> <JCHEM_PHYSIOLOGICAL_CHARGE>
0

> <ALOGPS_LOGP>
3.49

> <JCHEM_LOGP>
4.82

> <ALOGPS_LOGS>
-6.5

> <JCHEM_POLARIZABILITY>
77.07

> <JCHEM_POLAR_SURFACE_AREA>
103.3

> <JCHEM_REFRACTIVITY>
169.01

> <JCHEM_ROTATABLE_BOND_COUNT>
35

> <ALOGPS_SOLUBILITY>
2.14e-04 g/l __ 

$$$$
DB06810
ChemmineR-0317140124XD

 76 83  0  0  1  0            999 V2000
   21.9292  -17.6589    0.0000 C   0  0  2  0  0  0  0  0  0  0  0  0
   21.2033  -17.2711    0.0000 O   0  0  0  0  0  0  0  0  0  0  0  0
   20.5028  -17.7070    0.0000 C   0  0  1  0  0  0  0  0  0  0  0  0
   20.4880  -18.5316    0.0000 C   0  0  2  0  0  0  0  0  0  0  0  0
   21.2560  -18.9193    0.0000 C   0  0  1  0  0  0  0  0  0  0  0  0
   21.9151  -18.4834    0.0000 C   0  0  0  0  0  0  0  0  0  0  0  0
   23.2854  -15.1345    0.0000 C   0  0  2  0  0  0  0  0  0  0  0  0
   22.5669  -14.7506    0.0000 O   0  0  0  0  0  0  0  0  0  0  0  0
   21.8664  -15.1864    0.0000 C   0  0  1  0  0  0  0  0  0  0  0  0
   21.8515  -16.0109    0.0000 C   0  0  1  0  0  0  0  0  0  0  0  0
   22.6119  -16.3948    0.0000 C   0  0  1  0  0  0  0  0  0  0  0  0
   23.2712  -15.9591    0.0000 C   0  0  0  0  0  0  0  0  0  0  0  0
   22.6391  -17.2172    0.0000 O   0  0  0  0  0  0  0  0  0  0  0  0
   24.6451  -12.6159    0.0000 C   0  0  2  0  0  0  0  0  0  0  0  0
   23.9162  -12.2152    0.0000 O   0  0  0  0  0  0  0  0  0  0  0  0
   23.2106  -12.6426    0.0000 C   0  0  1  0  0  0  0  0  0  0  0  0
   23.1867  -13.4674    0.0000 C   0  0  2  0  0  0  0  0  0  0  0  0
   23.9569  -13.8681    0.0000 C   0  0  1  0  0  0  0  0  0  0  0  0
   24.6625  -13.4407    0.0000 C   0  0  0  0  0  0  0  0  0  0  0  0
   18.1612  -11.8605    0.0000 C   0  0  2  0  0  0  0  0  0  0  0  0
   17.4517  -11.4509    0.0000 O   0  0  0  0  0  0  0  0  0  0  0  0
   16.7372  -11.8634    0.0000 C   0  0  1  0  0  0  0  0  0  0  0  0
   16.7372  -12.6884    0.0000 C   0  0  2  0  0  0  0  0  0  0  0  0
   17.4467  -13.0980    0.0000 C   0  0  1  0  0  0  0  0  0  0  0  0
   18.1612  -12.6855    0.0000 C   0  0  0  0  0  0  0  0  0  0  0  0
   18.1711   -9.3798    0.0000 C   0  0  2  0  0  0  0  0  0  0  0  0
   18.1711  -10.2048    0.0000 C   0  0  2  0  0  0  0  0  0  0  0  0
   18.8855  -10.6173    0.0000 C   0  0  1  0  0  0  0  0  0  0  0  0
   19.6000  -10.2048    0.0000 C   0  0  0  0  0  0  0  0  0  0  0  0
   19.6000   -9.3798    0.0000 C   0  0  1  0  0  0  0  0  0  0  0  0
   18.8855   -8.9673    0.0000 O   0  0  0  0  0  0  0  0  0  0  0  0
   21.0289  -10.2048    0.0000 C   0  0  0  0  0  0  0  0  0  0  0  0
   21.0289   -9.3798    0.0000 C   0  0  0  0  0  0  0  0  0  0  0  0
   20.3145   -8.9673    0.0000 O   0  0  0  0  0  0  0  0  0  0  0  0
   21.7435  -10.6173    0.0000 C   0  0  0  0  0  0  0  0  0  0  0  0
   22.4579  -10.2048    0.0000 C   0  0  0  0  0  0  0  0  0  0  0  0
   22.4579   -9.3798    0.0000 C   0  0  0  0  0  0  0  0  0  0  0  0
   21.7435   -8.9673    0.0000 C   0  0  0  0  0  0  0  0  0  0  0  0
   23.1724  -10.6173    0.0000 C   0  0  0  0  0  0  0  0  0  0  0  0
   23.8869  -10.2048    0.0000 C   0  0  0  0  0  0  0  0  0  0  0  0
   23.8869   -9.3798    0.0000 C   0  0  0  0  0  0  0  0  0  0  0  0
   23.1724   -8.9673    0.0000 C   0  0  0  0  0  0  0  0  0  0  0  0
   24.6013  -10.6173    0.0000 C   0  0  0  0  0  0  0  0  0  0  0  0
   25.3158  -10.2048    0.0000 C   0  0  2  0  0  0  0  0  0  0  0  0
   25.3158   -9.3798    0.0000 C   0  0  1  0  0  0  0  0  0  0  0  0
   24.6013   -8.9673    0.0000 C   0  0  0  0  0  0  0  0  0  0  0  0
   17.4566   -8.9673    0.0000 C   0  0  0  0  0  0  0  0  0  0  0  0
   18.8855  -11.4422    0.0000 O   0  0  0  0  0  0  0  0  0  0  0  0
   17.4566  -10.6173    0.0000 O   0  0  0  0  0  0  0  0  0  0  0  0
   26.7447  -10.2048    0.0000 O   0  0  0  0  0  0  0  0  0  0  0  0
   26.7447   -9.3798    0.0000 C   0  0  0  0  0  0  0  0  0  0  0  0
   26.0303   -8.9673    0.0000 C   0  0  1  0  0  0  0  0  0  0  0  0
   28.1738  -10.2048    0.0000 O   0  0  0  0  0  0  0  0  0  0  0  0
   28.1738   -9.3798    0.0000 C   0  0  1  0  0  0  0  0  0  0  0  0
   27.4592   -8.9673    0.0000 C   0  0  2  0  0  0  0  0  0  0  0  0
   25.3571  -12.1848    0.0000 O   0  0  0  0  0  0  0  0  0  0  0  0
   26.0303   -8.1425    0.0000 O   0  0  0  0  0  0  0  0  0  0  0  0
   24.6013  -11.4423    0.0000 O   0  0  0  0  0  0  0  0  0  0  0  0
   23.1724  -11.4423    0.0000 O   0  0  0  0  0  0  0  0  0  0  0  0
   21.7435  -11.4421    0.0000 O   0  0  0  0  0  0  0  0  0  0  0  0
   27.4592   -8.1423    0.0000 O   0  0  0  0  0  0  0  0  0  0  0  0
   28.8730   -8.9759    0.0000 C   0  0  0  0  0  0  0  0  0  0  0  0
   25.3305   -7.7384    0.0000 C   0  0  0  0  0  0  0  0  0  0  0  0
   22.4908  -12.2232    0.0000 C   0  0  0  0  0  0  0  0  0  0  0  0
   23.9840  -14.7002    0.0000 O   0  0  0  0  0  0  0  0  0  0  0  0
   17.4466  -13.9171    0.0000 O   0  0  0  0  0  0  0  0  0  0  0  0
   16.0116  -11.4445    0.0000 C   0  0  0  0  0  0  0  0  0  0  0  0
   16.0191  -13.1031    0.0000 O   0  0  0  0  0  0  0  0  0  0  0  0
   22.4896  -13.8770    0.0000 O   0  0  0  0  0  0  0  0  0  0  0  0
   21.1562  -14.8069    0.0000 C   0  0  0  0  0  0  0  0  0  0  0  0
   19.7926  -17.3275    0.0000 C   0  0  0  0  0  0  0  0  0  0  0  0
   20.6726  -19.6264    0.0000 C   0  0  0  0  0  0  0  0  0  0  0  0
   21.8394  -19.6264    0.0000 O   0  0  0  0  0  0  0  0  0  0  0  0
   19.8214  -18.9725    0.0000 O   0  0  0  0  0  0  0  0  0  0  0  0
   21.1812  -16.4539    0.0000 O   0  0  0  0  0  0  0  0  0  0  0  0
   20.3058  -10.6224    0.0000 C   0  0  0  0  0  0  0  0  0  0  0  0
  1  2  1  0  0  0  0
  2  3  1  0  0  0  0
  3  4  1  0  0  0  0
  4  5  1  0  0  0  0
  5  6  1  0  0  0  0
  1  6  1  0  0  0  0
  7  8  1  0  0  0  0
  8  9  1  0  0  0  0
  9 10  1  0  0  0  0
 10 11  1  0  0  0  0
 11 12  1  0  0  0  0
  7 12  1  0  0  0  0
 11 13  1  1  0  0  0
 14 15  1  0  0  0  0
 15 16  1  0  0  0  0
 16 17  1  0  0  0  0
 17 18  1  0  0  0  0
 18 19  1  0  0  0  0
 14 19  1  0  0  0  0
 20 21  1  0  0  0  0
 21 22  1  0  0  0  0
 22 23  1  0  0  0  0
 23 24  1  0  0  0  0
 24 25  1  0  0  0  0
 20 25  1  0  0  0  0
 26 27  1  0  0  0  0
 27 28  1  0  0  0  0
 28 29  1  0  0  0  0
 29 30  1  0  0  0  0
 30 31  1  0  0  0  0
 26 31  1  0  0  0  0
 32 33  2  0  0  0  0
 33 34  1  0  0  0  0
 32 35  1  0  0  0  0
 35 36  2  0  0  0  0
 36 37  1  0  0  0  0
 37 38  2  0  0  0  0
 33 38  1  0  0  0  0
 36 39  1  0  0  0  0
 39 40  2  0  0  0  0
 40 41  1  0  0  0  0
 41 42  2  0  0  0  0
 37 42  1  0  0  0  0
 40 43  1  0  0  0  0
 43 44  1  0  0  0  0
 44 45  1  0  0  0  0
 45 46  1  0  0  0  0
 41 46  1  0  0  0  0
 30 34  1  1  0  0  0
 26 47  1  1  0  0  0
 28 48  1  1  0  0  0
 27 49  1  6  0  0  0
 50 51  2  0  0  0  0
 51 52  1  0  0  0  0
 45 52  1  1  0  0  0
 54 55  1  0  0  0  0
 51 55  1  0  0  0  0
 44 56  1  6  0  0  0
 52 57  1  6  0  0  0
 43 58  2  0  0  0  0
 39 59  1  0  0  0  0
 35 60  1  0  0  0  0
 54 53  1  1  0  0  0
 55 61  1  1  0  0  0
 54 62  1  0  0  0  0
 57 63  1  0  0  0  0
 20 48  1  1  0  0  0
 14 56  1  1  0  0  0
 16 64  1  1  0  0  0
 18 65  1  1  0  0  0
 24 66  1  1  0  0  0
 22 67  1  1  0  0  0
 23 68  1  6  0  0  0
 17 69  1  6  0  0  0
  7 65  1  1  0  0  0
  1 13  1  1  0  0  0
  9 70  1  1  0  0  0
  3 71  1  1  0  0  0
  5 72  1  1  0  0  0
  5 73  1  6  0  0  0
  4 74  1  6  0  0  0
 10 75  1  1  0  0  0
 32 76  1  0  0  0  0
M  END
> <DRUGBANK_ID>
DB06810

> <DRUG_GROUPS>
approved; withdrawn

> <GENERIC_NAME>
Plicamycin

> <SYNONYMS>
Mithramycin

> <BRANDS>
Mithracin

> <CHEMICAL_FORMULA>
C52H76O24

> <MOLECULAR_WEIGHT>
1085.1454

> <EXACT_MASS>
1084.47265336

> <IUPAC_NAME>
(2S,3S)-3-[(1S,3S,4R)-3,4-dihydroxy-1-methoxy-2-oxopentyl]-2-{[(2S,4R,5R,6R)-4-{[(2S,4R,5S,6R)-4-{[(2S,4S,5R,6R)-4,5-dihydroxy-4,6-dimethyloxan-2-yl]oxy}-5-hydroxy-6-methyloxan-2-yl]oxy}-5-hydroxy-6-methyloxan-2-yl]oxy}-6-{[(2S,4R,5R,6R)-4-{[(2S,4R,5S,6R)-4,5-dihydroxy-6-methyloxan-2-yl]oxy}-5-hydroxy-6-methyloxan-2-yl]oxy}-8,9-dihydroxy-7-methyl-1,2,3,4-tetrahydroanthracen-1-one

> <INCHI_IDENTIFIER>
InChI=1S/C52H76O24/c1-18-29(72-34-14-30(43(58)21(4)68-34)73-33-13-28(54)42(57)20(3)67-33)12-26-10-25-11-27(49(66-9)48(63)41(56)19(2)53)50(47(62)39(25)46(61)38(26)40(18)55)76-36-16-31(44(59)23(6)70-36)74-35-15-32(45(60)22(5)69-35)75-37-17-52(8,65)51(64)24(7)71-37/h10,12,19-24,27-28,30-37,41-45,49-51,53-61,64-65H,11,13-17H2,1-9H3/t19-,20-,21-,22-,23-,24-,27+,28-,30-,31-,32-,33+,34+,35+,36+,37+,41+,42-,43-,44-,45+,49+,50+,51-,52+/m1/s1

> <INCHI_KEY>
InChIKey=CFCUWKMKBJTWLW-BKHRDMLASA-N

> <SMILES>
CO[C@@H]([C@@H]1CC2=CC3=CC(O[C@H]4C[C@@H](O[C@H]5C[C@@H](O)[C@H](O)[C@@H](C)O5)[C@H](O)[C@@H](C)O4)=C(C)C(O)=C3C(O)=C2C(=O)[C@H]1O[C@H]1C[C@@H](O[C@H]2C[C@@H](O[C@H]3C[C@](C)(O)[C@H](O)[C@@H](C)O3)[C@@H](O)[C@@H](C)O2)[C@H](O)[C@@H](C)O1)C(=O)[C@@H](O)[C@@H](C)O

> <JCHEM_ACCEPTOR_COUNT>
24

> <JCHEM_DONOR_COUNT>
11

> <JCHEM_ACIDIC_PKA>
8.49

> <JCHEM_BASIC_PKA>
-3.6

> <JCHEM_PHYSIOLOGICAL_CHARGE>
0

> <ALOGPS_LOGP>
-0.23

> <JCHEM_LOGP>
2.07

> <ALOGPS_LOGS>
-2.9

> <JCHEM_POLARIZABILITY>
114.41

> <JCHEM_POLAR_SURFACE_AREA>
358.2

> <JCHEM_REFRACTIVITY>
257.01

> <JCHEM_ROTATABLE_BOND_COUNT>
15

> <ALOGPS_SOLUBILITY>
1.30e+00 g/l __ 

$$$$
DB08878
ChemmineR-0317140124XD

 32 34  0  0  1  0            999 V2000
    4.3405    2.0419    0.0000 N   0  0  0  0  0  0  0  0  0  0  0  0
    3.6302    3.2799    0.0000 N   0  0  0  0  0  0  0  0  0  0  0  0
    2.9150    2.0419    0.0000 C   0  0  0  0  0  0  0  0  0  0  0  0
    2.9150    2.8656    0.0000 C   0  0  0  0  0  0  0  0  0  0  0  0
    3.6302    1.6375    0.0000 C   0  0  0  0  0  0  0  0  0  0  0  0
    4.3405    2.8656    0.0000 C   0  0  0  0  0  0  0  0  0  0  0  0
    2.1949    1.6375    0.0000 N   0  0  0  0  0  0  0  0  0  0  0  0
   -2.8410    0.5770    0.0000 C   0  0  0  0  0  0  0  0  0  0  0  0
    2.1949    3.2799    0.0000 N   0  0  0  0  0  0  0  0  0  0  0  0
   -2.8804   -0.2417    0.0000 N   0  0  0  0  0  0  0  0  0  0  0  0
   -4.2911   -0.1677    0.0000 C   0  0  0  0  0  0  0  0  0  0  0  0
   -3.6054   -0.6116    0.0000 C   0  0  2  0  0  0  0  0  0  0  0  0
   -3.0136   -2.6832    0.0000 C   0  0  0  0  0  0  0  0  0  0  0  0
   -2.0962    0.9717    0.0000 C   0  0  0  0  0  0  0  0  0  0  0  0
    1.4847    2.0419    0.0000 C   0  0  0  0  0  0  0  0  0  0  0  0
   -4.2566    0.6510    0.0000 O   0  0  0  0  0  0  0  0  0  0  0  0
   -3.5315    1.0308    0.0000 O   0  0  0  0  0  0  0  0  0  0  0  0
   -2.3477   -3.2109    0.0000 O   0  0  0  0  0  0  0  0  0  0  0  0
   -5.0408   -0.5524    0.0000 O   0  0  0  0  0  0  0  0  0  0  0  0
    0.0937    2.0715    0.0000 N   0  0  0  0  0  0  0  0  0  0  0  0
   -3.7732   -2.9792    0.0000 O   0  0  0  0  0  0  0  0  0  0  0  0
    3.6302    0.7991    0.0000 N   0  0  0  0  0  0  0  0  0  0  0  0
    1.4847    2.8656    0.0000 C   0  0  0  0  0  0  0  0  0  0  0  0
    5.0457    3.2799    0.0000 N   0  0  0  0  0  0  0  0  0  0  0  0
   -3.6646   -1.4847    0.0000 C   0  0  0  0  0  0  0  0  0  0  0  0
   -1.4007    0.5179    0.0000 C   0  0  0  0  0  0  0  0  0  0  0  0
   -2.0567    1.7854    0.0000 C   0  0  0  0  0  0  0  0  0  0  0  0
    0.7744    1.6079    0.0000 C   0  0  0  0  0  0  0  0  0  0  0  0
   -2.9002   -1.8644    0.0000 C   0  0  0  0  0  0  0  0  0  0  0  0
   -0.6165    1.7263    0.0000 C   0  0  0  0  0  0  0  0  0  0  0  0
   -1.3120    2.1701    0.0000 C   0  0  0  0  0  0  0  0  0  0  0  0
   -0.6806    0.8879    0.0000 C   0  0  0  0  0  0  0  0  0  0  0  0
  2  6  2  0  0  0  0
  3  5  1  0  0  0  0
  4  2  1  0  0  0  0
  5  1  2  0  0  0  0
  6  1  1  0  0  0  0
  7  3  1  0  0  0  0
  8 14  1  0  0  0  0
  9  4  1  0  0  0  0
 10  8  1  0  0  0  0
 11 12  1  0  0  0  0
 12 10  1  1  0  0  0
 13 29  1  0  0  0  0
 14 26  1  0  0  0  0
 15  7  2  0  0  0  0
 16 11  1  0  0  0  0
 17  8  2  0  0  0  0
 18 13  1  0  0  0  0
 19 11  2  0  0  0  0
 20 28  1  0  0  0  0
 21 13  2  0  0  0  0
 22  5  1  0  0  0  0
 23  9  2  0  0  0  0
 24  6  1  0  0  0  0
 25 12  1  0  0  0  0
 26 32  2  0  0  0  0
 27 31  1  0  0  0  0
 28 15  1  0  0  0  0
 29 25  1  0  0  0  0
 30 20  1  0  0  0  0
 31 30  2  0  0  0  0
 32 30  1  0  0  0  0
  4  3  2  0  0  0  0
 23 15  1  0  0  0  0
 27 14  2  0  0  0  0
M  END
> <DRUGBANK_ID>
DB08878

> <DRUG_GROUPS>
withdrawn; investigational

> <GENERIC_NAME>
Aminopterin

> <SYNONYMS>
4-amino-4-deoxypteroylglutamate; 4-amino-PGA; 4-aminofolic acid; 4-aminopteroylglutamic acid; 4'-Amino-folsaeure; A-ninopterin; A-Ninopterin; Aminopteridine; Aminopterine; APGA; Minopterin ; N-(4-{[(2,4-Diamino-6-pteridinyl)methyl]amino}benzoyl)glutamic acid; Pteramina

> <CHEMICAL_FORMULA>
C19H20N8O5

> <MOLECULAR_WEIGHT>
440.4127

> <EXACT_MASS>
440.15566579

> <IUPAC_NAME>
(2S)-2-[(4-{[(2,4-diaminopteridin-6-yl)methyl]amino}phenyl)formamido]pentanedioic acid

> <INCHI_IDENTIFIER>
InChI=1S/C19H20N8O5/c20-15-14-16(27-19(21)26-15)23-8-11(24-14)7-22-10-3-1-9(2-4-10)17(30)25-12(18(31)32)5-6-13(28)29/h1-4,8,12,22H,5-7H2,(H,25,30)(H,28,29)(H,31,32)(H4,20,21,23,26,27)/t12-/m0/s1

> <INCHI_KEY>
InChIKey=TVZGACDUOSZQKY-LBPRGKRZSA-N

> <SMILES>
NC1=NC2=C(N=C(CNC3=CC=C(C=C3)C(=O)N[C@@H](CCC(O)=O)C(O)=O)C=N2)C(N)=N1

> <JCHEM_ACCEPTOR_COUNT>
12

> <JCHEM_DONOR_COUNT>
6

> <JCHEM_ACIDIC_PKA>
3.38

> <JCHEM_BASIC_PKA>
2.25

> <JCHEM_PHYSIOLOGICAL_CHARGE>
-2

> <ALOGPS_LOGP>
-0.25

> <JCHEM_LOGP>
-0.95

> <ALOGPS_LOGS>
-3.6

> <JCHEM_POLARIZABILITY>
44.14

> <JCHEM_POLAR_SURFACE_AREA>
219.33

> <JCHEM_REFRACTIVITY>
114.98

> <JCHEM_ROTATABLE_BOND_COUNT>
9

> <ALOGPS_SOLUBILITY>
1.06e-01 g/l __ 

$$$$
